                                   MODFLOW 6
                U.S. GEOLOGICAL SURVEY MODULAR HYDROLOGIC MODEL
                            VERSION 6.4.2 06/28/2023

   MODFLOW 6 compiled Jun 28 2023 18:41:13 with Intel(R) Fortran Intel(R) 64
   Compiler Classic for applications running on Intel(R) 64, Version 2021.7.0
                             Build 20220726_000000

This software has been approved for release by the U.S. Geological 
Survey (USGS). Although the software has been subjected to rigorous 
review, the USGS reserves the right to update the software as needed 
pursuant to further analysis and review. No warranty, expressed or 
implied, is made by the USGS or the U.S. Government as to the 
functionality of the software and related material nor shall the 
fact of release constitute any such warranty. Furthermore, the 
software is released on condition that neither the USGS nor the U.S. 
Government shall be held liable for any damages resulting from its 
authorized or unauthorized use. Also refer to the USGS Water 
Resources Software User Rights Notice for complete use, copyright, 
and distribution information.


As a work of the United States Government, this USGS product is 
in the public domain within the United States. You can copy, 
modify, distribute, and perform the work, even for commercial 
purposes, all without asking permission. Additionally, USGS 
waives copyright and related rights in the work worldwide 
through CC0 1.0 Universal Public Domain Dedication 
(https://creativecommons.org/publicdomain/zero/1.0/).

The following GNU Lesser General Public License (LGPL) libraries
are used in this USGS product:

    SPARSKIT version 2.0
      ilut, luson, and qsplit 
      (https://www-users.cse.umn.edu/~saad/software/SPARSKIT/)

    RCM - Reverse Cuthill McKee Ordering
      (https://people.math.sc.edu/Burkardt/f_src/rcm/rcm.html)

    BLAS - Basic Linear Algebra Subprograms Level 1
      (https://people.math.sc.edu/Burkardt/f_src/blas1_d/blas1_d.html)

    SPARSEKIT - Sparse Matrix Utility Package
      amux, dperm, dvperm, rperm, and cperm
      (https://people.sc.fsu.edu/~jburkardt/f77_src/sparsekit/sparsekit.html)

The following BSD-3 License libraries are used in this USGS product:

    Modern Fortran DAG Library
      Copyright (c) 2018, Jacob Williams
      All rights reserved.
      (https://github.com/jacobwilliams/daglib)

MODFLOW 6 compiler options: /Isrc\libmf6core.a.p /Isrc /I..\src
/Isrc\libmf6_external.a.p /MTd /nologo /warn:general /warn:truncated_source
/stand:f08 /Zi /traceback /O2 /fpe:0 /heap-arrays:0 /traceback /fpp
/Qdiag-disable:7416 /Qdiag-disable:7025 /Qdiag-disable:5268
/Fdsrc\libmf6core.a.p\Utilities_compilerversion.F90.pdb
/module:src\libmf6core.a.p
/Fosrc/libmf6core.a.p/Utilities_compilerversion.F90.obj /c

System command used to initiate simulation:
C:\Users\Anwender\WRDAPP\mf6.4.2\mf6.4.2_win64\bin\mf6.exe

MODFLOW was compiled using uniform precision.

Real Variables
  KIND: 8
  TINY (smallest non-zero value):    2.225074-308
  HUGE (largest value):    1.797693+308
  PRECISION: 15
  SIZE IN BITS: 64

Integer Variables
  KIND: 4
  HUGE (largest value): 2147483647
  SIZE IN BITS: 32

Long Integer Variables
  KIND: 8
  HUGE (largest value): 9223372036854775807
  SIZE IN BITS: 64

Logical Variables
  KIND: 4
  SIZE IN BITS: 32
 

 OPENED mfsim.nam
 FILE TYPE:NAM   UNIT 1001   STATUS:OLD                 
 FORMAT:FORMATTED              ACCESS:SEQUENTIAL          
 ACTION:READ                

 # File generated by Flopy version 3.6.0 on 03/12/2025 at 15:05:04.

 OPENED Reference.nam
 FILE TYPE:NAM   UNIT 1002   STATUS:OLD                 
 FORMAT:FORMATTED              ACCESS:SEQUENTIAL          
 ACTION:READ                

 # File generated by Flopy version 3.6.0 on 03/12/2025 at 15:05:04.

 OPENED Reference.disv
 FILE TYPE:DISV6     UNIT 1003   STATUS:OLD                 
 FORMAT:FORMATTED              ACCESS:SEQUENTIAL          
 ACTION:READ                


 OPENED Reference.npf
 FILE TYPE:NPF6      UNIT 1004   STATUS:OLD                 
 FORMAT:FORMATTED              ACCESS:SEQUENTIAL          
 ACTION:READ                


 OPENED Reference.sto
 FILE TYPE:STO6      UNIT 1005   STATUS:OLD                 
 FORMAT:FORMATTED              ACCESS:SEQUENTIAL          
 ACTION:READ                


 OPENED Reference.ic
 FILE TYPE:IC6       UNIT 1006   STATUS:OLD                 
 FORMAT:FORMATTED              ACCESS:SEQUENTIAL          
 ACTION:READ                


 OPENED Reference.oc
 FILE TYPE:OC6       UNIT 1007   STATUS:OLD                 
 FORMAT:FORMATTED              ACCESS:SEQUENTIAL          
 ACTION:READ                


 OPENED Reference.wel
 FILE TYPE:WEL6      UNIT 1008   STATUS:OLD                 
 FORMAT:FORMATTED              ACCESS:SEQUENTIAL          
 ACTION:READ                


 OPENED Reference.drn
 FILE TYPE:DRN6      UNIT 1009   STATUS:OLD                 
 FORMAT:FORMATTED              ACCESS:SEQUENTIAL          
 ACTION:READ                


 OPENED Reference.riv
 FILE TYPE:RIV6      UNIT 1010   STATUS:OLD                 
 FORMAT:FORMATTED              ACCESS:SEQUENTIAL          
 ACTION:READ                


 OPENED Reference.rch
 FILE TYPE:RCH6      UNIT 1011   STATUS:OLD                 
 FORMAT:FORMATTED              ACCESS:SEQUENTIAL          
 ACTION:READ                


 OPENED Reference.chd
 FILE TYPE:CHD6      UNIT 1012   STATUS:OLD                 
 FORMAT:FORMATTED              ACCESS:SEQUENTIAL          
 ACTION:READ                

 # File generated by Flopy version 3.6.0 on 03/12/2025 at 15:05:04.
 # File generated by Flopy version 3.6.0 on 03/12/2025 at 15:05:06.

 READING SIMULATION OPTIONS
    MAXIMUM NUMBER OF ERRORS THAT WILL BE STORED IS 1000
 END OF SIMULATION OPTIONS

 READING SIMULATION TIMING

 OPENED Reference.tdis
 FILE TYPE:TDIS   UNIT 1013   STATUS:OLD                 
 FORMAT:FORMATTED              ACCESS:SEQUENTIAL          
 ACTION:READ                


 TDIS -- TEMPORAL DISCRETIZATION PACKAGE,
 VERSION 1 : 11/13/2014 - INPUT READ FROM UNIT 1013
 # File generated by Flopy version 3.6.0 on 03/12/2025 at 15:05:04.
 PROCESSING TDIS OPTIONS
    SIMULATION TIME UNIT IS SECONDS
 END OF TDIS OPTIONS
 PROCESSING TDIS DIMENSIONS
    1 STRESS PERIOD(S) IN SIMULATION
 END OF TDIS DIMENSIONS
 PROCESSING TDIS PERIODDATA


 STRESS PERIOD     LENGTH       TIME STEPS     MULTIPLIER FOR DELT
 ----------------------------------------------------------------------------
        1         21600.00          1                    1.000
 END OF TDIS PERIODDATA
 END OF SIMULATION TIMING

 READING SIMULATION MODELS
    GWF6 model 1 will be created
 END OF SIMULATION MODELS

 READING SIMULATION EXCHANGES
 END OF SIMULATION EXCHANGES

 READING SOLUTIONGROUP

 Creating solution: SLN_1           

 OPENED Reference.ims
 FILE TYPE:IMS   UNIT 1015   STATUS:OLD                 
 FORMAT:FORMATTED              ACCESS:SEQUENTIAL          
 ACTION:READ                

 END OF SOLUTIONGROUP

PROCESSING MODEL CONNECTIONS

 IMS -- ITERATIVE MODEL SOLUTION PACKAGE, VERSION 6, 4/28/2017
         INPUT READ FROM UNIT 1015
 # File generated by Flopy version 3.6.0 on 03/12/2025 at 15:05:04.

 PROCESSING IMS OPTIONS
 COMPLEX OPTION:
 DEFAULT SOLVER INPUT VALUES REFLECT STRONGLY NONLINEAR MODEL
 END OF IMS OPTIONS
 **UNDER-RELAXATION WILL BE USED***
 
 ***IMS LINEAR SOLVER WILL BE USED***

 IMSLINEAR -- UNSTRUCTURED LINEAR SOLUTION PACKAGE, VERSION 8, 04/28/2017

 PROCESSING LINEAR DATA
 END OF LINEAR DATA
 An asymmetric matrix will be solved

 OUTER ITERATION CONVERGENCE CRITERION    (DVCLOSE) =    0.100000E+00
 MAXIMUM NUMBER OF OUTER ITERATIONS        (MXITER) = 100
 SOLVER PRINTOUT INDEX                     (IPRIMS) = 1
 NONLINEAR ITERATION METHOD            (NONLINMETH) = 3
 LINEAR SOLUTION METHOD                   (LINMETH) = 1
 UNDER-RELAXATION WEIGHT REDUCTION FACTOR   (THETA) =    0.800000E+00
 UNDER-RELAXATION WEIGHT INCREASE INCREMENT (KAPPA) =    0.100000E-03
 UNDER-RELAXATION PREVIOUS HISTORY FACTOR   (GAMMA) =    0.000000E+00
 UNDER-RELAXATION MOMENTUM TERM         (AMOMENTUM) =    0.000000E+00
 MAXIMUM NUMBER OF BACKTRACKS            (NUMTRACK) = 20
 BACKTRACKING TOLERANCE FACTOR               (BTOL) =    0.105000E+01
 BACKTRACKING REDUCTION FACTOR             (BREDUC) =    0.100000E+00
 BACKTRACKING RESIDUAL LIMIT              (RES_LIM) =    0.200000E-02

       SOLUTION BY THE BICONJUGATE-GRADIENT STABILIZED METHOD
 ------------------------------------------------------------------
 MAXIMUM OF 100 CALLS OF SOLUTION ROUTINE
 MAXIMUM OF 500 INTERNAL ITERATIONS PER CALL TO SOLUTION ROUTINE
 LINEAR ACCELERATION METHOD            = BCGS      
 MATRIX PRECONDITIONING TYPE           = INCOMPLETE LUT      
 MATRIX SCALING APPROACH               = NO SCALING          
 MATRIX REORDERING APPROACH            = ORIGINAL ORDERING        
 NUMBER OF ORTHOGONALIZATIONS          = 2
 HEAD CHANGE CRITERION FOR CLOSURE     =    0.10000E+00
 RESIDUAL CHANGE CRITERION FOR CLOSURE =    0.10000E+00
 RESIDUAL CONVERGENCE OPTION           = 0
 RESIDUAL CONVERGENCE NORM             = INFINITY NORM   
 RELAXATION FACTOR                     =    0.00000E+00
 NUMBER OF LEVELS                      =              5
 DROP TOLERANCE                        =    0.10000E-03


 
    Solving:  Stress period:     1    Time step:     1
 
1
                            STRESS PERIOD NO. 1, LENGTH =   21600.00    
                            -----------------------------------------------
                            NUMBER OF TIME STEPS = 1
                            MULTIPLIER FOR DELT =     1.000
                            INITIAL TIME STEP SIZE =   21600.00    

ERROR REPORT:

     1. RIV BOUNDARY (1) RIVER STAGE (   26.5300) IS LESS THAN RIVER BOTTOM (
          26.5820)
     2. RIV BOUNDARY (2) RIVER STAGE (   26.5239) IS LESS THAN RIVER BOTTOM (
          26.5759)
     3. RIV BOUNDARY (3) RIVER STAGE (   26.5177) IS LESS THAN RIVER BOTTOM (
          26.5697)
     4. RIV BOUNDARY (4) RIVER STAGE (   26.5116) IS LESS THAN RIVER BOTTOM (
          26.5636)
     5. RIV BOUNDARY (5) RIVER STAGE (   26.4978) IS LESS THAN RIVER BOTTOM (
          26.5498)
     6. RIV BOUNDARY (6) RIVER STAGE (   26.4856) IS LESS THAN RIVER BOTTOM (
          26.5376)
     7. RIV BOUNDARY (7) RIVER STAGE (   26.4794) IS LESS THAN RIVER BOTTOM (
          26.5314)
     8. RIV BOUNDARY (8) RIVER STAGE (   26.4657) IS LESS THAN RIVER BOTTOM (
          26.5177)
     9. RIV BOUNDARY (9) RIVER STAGE (   26.4595) IS LESS THAN RIVER BOTTOM (
          26.5115)
    10. RIV BOUNDARY (10) RIVER STAGE (   26.4508) IS LESS THAN RIVER BOTTOM
        (   26.5028)
    11. RIV BOUNDARY (11) RIVER STAGE (   26.4447) IS LESS THAN RIVER BOTTOM
        (   26.4967)
    12. RIV BOUNDARY (12) RIVER STAGE (   26.4386) IS LESS THAN RIVER BOTTOM
        (   26.4906)
    13. RIV BOUNDARY (13) RIVER STAGE (   26.4324) IS LESS THAN RIVER BOTTOM
        (   26.4844)
    14. RIV BOUNDARY (14) RIVER STAGE (   26.4237) IS LESS THAN RIVER BOTTOM
        (   26.4757)
    15. RIV BOUNDARY (15) RIVER STAGE (   26.4176) IS LESS THAN RIVER BOTTOM
        (   26.4696)
    16. RIV BOUNDARY (16) RIVER STAGE (   26.4089) IS LESS THAN RIVER BOTTOM
        (   26.4609)
    17. RIV BOUNDARY (17) RIVER STAGE (   26.4028) IS LESS THAN RIVER BOTTOM
        (   26.4548)
    18. RIV BOUNDARY (18) RIVER STAGE (   26.3966) IS LESS THAN RIVER BOTTOM
        (   26.4486)
    19. RIV BOUNDARY (19) RIVER STAGE (   26.3905) IS LESS THAN RIVER BOTTOM
        (   26.4425)
    20. RIV BOUNDARY (20) RIVER STAGE (   26.3818) IS LESS THAN RIVER BOTTOM
        (   26.4338)
    21. RIV BOUNDARY (21) RIVER STAGE (   26.3757) IS LESS THAN RIVER BOTTOM
        (   26.4277)
    22. RIV BOUNDARY (22) RIVER STAGE (   26.3670) IS LESS THAN RIVER BOTTOM
        (   26.4190)
    23. RIV BOUNDARY (23) RIVER STAGE (   26.3608) IS LESS THAN RIVER BOTTOM
        (   26.4128)
    24. RIV BOUNDARY (24) RIVER STAGE (   26.3521) IS LESS THAN RIVER BOTTOM
        (   26.4041)
    25. RIV BOUNDARY (25) RIVER STAGE (   26.3460) IS LESS THAN RIVER BOTTOM
        (   26.3980)
    26. RIV BOUNDARY (26) RIVER STAGE (   26.3323) IS LESS THAN RIVER BOTTOM
        (   26.3843)
    27. RIV BOUNDARY (27) RIVER STAGE (   26.3261) IS LESS THAN RIVER BOTTOM
        (   26.3781)
    28. RIV BOUNDARY (28) RIVER STAGE (   26.3174) IS LESS THAN RIVER BOTTOM
        (   26.3694)
    29. RIV BOUNDARY (29) RIVER STAGE (   26.3113) IS LESS THAN RIVER BOTTOM
        (   26.3633)
    30. RIV BOUNDARY (30) RIVER STAGE (   26.3026) IS LESS THAN RIVER BOTTOM
        (   26.3546)
    31. RIV BOUNDARY (31) RIVER STAGE (   26.2965) IS LESS THAN RIVER BOTTOM
        (   26.3485)
    32. RIV BOUNDARY (32) RIVER STAGE (   26.2827) IS LESS THAN RIVER BOTTOM
        (   26.3347)
    33. RIV BOUNDARY (33) RIVER STAGE (   26.2766) IS LESS THAN RIVER BOTTOM
        (   26.3286)
    34. RIV BOUNDARY (34) RIVER STAGE (   26.2679) IS LESS THAN RIVER BOTTOM
        (   26.3199)
    35. RIV BOUNDARY (35) RIVER STAGE (   26.2618) IS LESS THAN RIVER BOTTOM
        (   26.3138)
    36. RIV BOUNDARY (36) RIVER STAGE (   26.2556) IS LESS THAN RIVER BOTTOM
        (   26.3076)
    37. RIV BOUNDARY (37) RIVER STAGE (   26.2495) IS LESS THAN RIVER BOTTOM
        (   26.3015)
    38. RIV BOUNDARY (38) RIVER STAGE (   26.2408) IS LESS THAN RIVER BOTTOM
        (   26.2928)
    39. RIV BOUNDARY (39) RIVER STAGE (   26.2346) IS LESS THAN RIVER BOTTOM
        (   26.2866)
    40. RIV BOUNDARY (40) RIVER STAGE (   26.2209) IS LESS THAN RIVER BOTTOM
        (   26.2729)
    41. RIV BOUNDARY (41) RIVER STAGE (   26.2148) IS LESS THAN RIVER BOTTOM
        (   26.2668)
    42. RIV BOUNDARY (42) RIVER STAGE (   26.2061) IS LESS THAN RIVER BOTTOM
        (   26.2581)
    43. RIV BOUNDARY (43) RIVER STAGE (   26.1999) IS LESS THAN RIVER BOTTOM
        (   26.2519)
    44. RIV BOUNDARY (44) RIVER STAGE (   26.1912) IS LESS THAN RIVER BOTTOM
        (   26.2432)
    45. RIV BOUNDARY (45) RIVER STAGE (   26.1851) IS LESS THAN RIVER BOTTOM
        (   26.2371)
    46. RIV BOUNDARY (46) RIVER STAGE (   26.1714) IS LESS THAN RIVER BOTTOM
        (   26.2234)
    47. RIV BOUNDARY (47) RIVER STAGE (   26.1652) IS LESS THAN RIVER BOTTOM
        (   26.2172)
    48. RIV BOUNDARY (48) RIVER STAGE (   26.1565) IS LESS THAN RIVER BOTTOM
        (   26.2085)
    49. RIV BOUNDARY (49) RIVER STAGE (   26.1504) IS LESS THAN RIVER BOTTOM
        (   26.2024)
    50. RIV BOUNDARY (50) RIVER STAGE (   26.1417) IS LESS THAN RIVER BOTTOM
        (   26.1937)
    51. RIV BOUNDARY (51) RIVER STAGE (   26.1356) IS LESS THAN RIVER BOTTOM
        (   26.1876)
    52. RIV BOUNDARY (52) RIVER STAGE (   26.1218) IS LESS THAN RIVER BOTTOM
        (   26.1738)
    53. RIV BOUNDARY (53) RIVER STAGE (   26.1157) IS LESS THAN RIVER BOTTOM
        (   26.1677)
    54. RIV BOUNDARY (54) RIVER STAGE (   26.1070) IS LESS THAN RIVER BOTTOM
        (   26.1590)
    55. RIV BOUNDARY (55) RIVER STAGE (   26.1009) IS LESS THAN RIVER BOTTOM
        (   26.1529)
    56. RIV BOUNDARY (56) RIVER STAGE (   26.0922) IS LESS THAN RIVER BOTTOM
        (   26.1442)
    57. RIV BOUNDARY (57) RIVER STAGE (   26.0860) IS LESS THAN RIVER BOTTOM
        (   26.1380)
    58. RIV BOUNDARY (58) RIVER STAGE (   26.0774) IS LESS THAN RIVER BOTTOM
        (   26.1294)
    59. RIV BOUNDARY (59) RIVER STAGE (   26.0712) IS LESS THAN RIVER BOTTOM
        (   26.1232)
    60. RIV BOUNDARY (60) RIVER STAGE (   26.0651) IS LESS THAN RIVER BOTTOM
        (   26.1171)
    61. RIV BOUNDARY (61) RIVER STAGE (   26.0589) IS LESS THAN RIVER BOTTOM
        (   26.1109)
    62. RIV BOUNDARY (62) RIVER STAGE (   26.0528) IS LESS THAN RIVER BOTTOM
        (   26.1048)
    63. RIV BOUNDARY (63) RIVER STAGE (   26.0441) IS LESS THAN RIVER BOTTOM
        (   26.0961)
    64. RIV BOUNDARY (64) RIVER STAGE (   26.0380) IS LESS THAN RIVER BOTTOM
        (   26.0900)
    65. RIV BOUNDARY (65) RIVER STAGE (   26.0242) IS LESS THAN RIVER BOTTOM
        (   26.0762)
    66. RIV BOUNDARY (66) RIVER STAGE (   26.0181) IS LESS THAN RIVER BOTTOM
        (   26.0701)
    67. RIV BOUNDARY (67) RIVER STAGE (   26.0094) IS LESS THAN RIVER BOTTOM
        (   26.0614)
    68. RIV BOUNDARY (68) RIVER STAGE (   26.0032) IS LESS THAN RIVER BOTTOM
        (   26.0552)
    69. RIV BOUNDARY (69) RIVER STAGE (   25.9971) IS LESS THAN RIVER BOTTOM
        (   26.0491)
    70. RIV BOUNDARY (70) RIVER STAGE (   25.9910) IS LESS THAN RIVER BOTTOM
        (   26.0430)
    71. RIV BOUNDARY (71) RIVER STAGE (   25.9823) IS LESS THAN RIVER BOTTOM
        (   26.0343)
    72. RIV BOUNDARY (72) RIVER STAGE (   25.9761) IS LESS THAN RIVER BOTTOM
        (   26.0281)
    73. RIV BOUNDARY (73) RIVER STAGE (   25.9624) IS LESS THAN RIVER BOTTOM
        (   26.0144)
    74. RIV BOUNDARY (74) RIVER STAGE (   25.9563) IS LESS THAN RIVER BOTTOM
        (   26.0083)
    75. RIV BOUNDARY (75) RIVER STAGE (   25.9476) IS LESS THAN RIVER BOTTOM
        (   25.9996)
    76. RIV BOUNDARY (76) RIVER STAGE (   25.9389) IS LESS THAN RIVER BOTTOM
        (   25.9909)
    77. RIV BOUNDARY (77) RIVER STAGE (   25.9327) IS LESS THAN RIVER BOTTOM
        (   25.9847)
    78. RIV BOUNDARY (78) RIVER STAGE (   25.9190) IS LESS THAN RIVER BOTTOM
        (   25.9710)
    79. RIV BOUNDARY (79) RIVER STAGE (   25.9129) IS LESS THAN RIVER BOTTOM
        (   25.9649)
    80. RIV BOUNDARY (80) RIVER STAGE (   25.8991) IS LESS THAN RIVER BOTTOM
        (   25.9511)
    81. RIV BOUNDARY (81) RIVER STAGE (   25.8930) IS LESS THAN RIVER BOTTOM
        (   25.9450)
    82. RIV BOUNDARY (82) RIVER STAGE (   25.8843) IS LESS THAN RIVER BOTTOM
        (   25.9363)
    83. RIV BOUNDARY (83) RIVER STAGE (   25.8782) IS LESS THAN RIVER BOTTOM
        (   25.9302)
    84. RIV BOUNDARY (84) RIVER STAGE (   25.8720) IS LESS THAN RIVER BOTTOM
        (   25.9240)
    85. RIV BOUNDARY (85) RIVER STAGE (   25.8633) IS LESS THAN RIVER BOTTOM
        (   25.9153)
    86. RIV BOUNDARY (86) RIVER STAGE (   25.8572) IS LESS THAN RIVER BOTTOM
        (   25.9092)
    87. RIV BOUNDARY (87) RIVER STAGE (   25.8485) IS LESS THAN RIVER BOTTOM
        (   25.9005)
    88. RIV BOUNDARY (88) RIVER STAGE (   25.8424) IS LESS THAN RIVER BOTTOM
        (   25.8944)
    89. RIV BOUNDARY (89) RIVER STAGE (   25.8362) IS LESS THAN RIVER BOTTOM
        (   25.8882)
    90. RIV BOUNDARY (90) RIVER STAGE (   25.8301) IS LESS THAN RIVER BOTTOM
        (   25.8821)
    91. RIV BOUNDARY (91) RIVER STAGE (   25.8214) IS LESS THAN RIVER BOTTOM
        (   25.8734)
    92. RIV BOUNDARY (92) RIVER STAGE (   25.8152) IS LESS THAN RIVER BOTTOM
        (   25.8672)
    93. RIV BOUNDARY (93) RIVER STAGE (   25.8066) IS LESS THAN RIVER BOTTOM
        (   25.8586)
    94. RIV BOUNDARY (94) RIVER STAGE (   25.8004) IS LESS THAN RIVER BOTTOM
        (   25.8524)
    95. RIV BOUNDARY (95) RIVER STAGE (   25.7943) IS LESS THAN RIVER BOTTOM
        (   25.8463)
    96. RIV BOUNDARY (96) RIVER STAGE (   25.7881) IS LESS THAN RIVER BOTTOM
        (   25.8401)
    97. RIV BOUNDARY (97) RIVER STAGE (   25.7820) IS LESS THAN RIVER BOTTOM
        (   25.8340)
    98. RIV BOUNDARY (98) RIVER STAGE (   25.7758) IS LESS THAN RIVER BOTTOM
        (   25.8278)
    99. RIV BOUNDARY (99) RIVER STAGE (   25.7672) IS LESS THAN RIVER BOTTOM
        (   25.8192)
   100. RIV BOUNDARY (100) RIVER STAGE (   25.7610) IS LESS THAN RIVER BOTTOM
        (   25.8130)
   101. RIV BOUNDARY (101) RIVER STAGE (   25.7523) IS LESS THAN RIVER BOTTOM
        (   25.8043)
   102. RIV BOUNDARY (102) RIVER STAGE (   25.7462) IS LESS THAN RIVER BOTTOM
        (   25.7982)
   103. RIV BOUNDARY (103) RIVER STAGE (   25.7400) IS LESS THAN RIVER BOTTOM
        (   25.7920)
   104. RIV BOUNDARY (104) RIVER STAGE (   25.7339) IS LESS THAN RIVER BOTTOM
        (   25.7859)
   105. RIV BOUNDARY (105) RIVER STAGE (   25.7278) IS LESS THAN RIVER BOTTOM
        (   25.7798)
   106. RIV BOUNDARY (106) RIVER STAGE (   25.7216) IS LESS THAN RIVER BOTTOM
        (   25.7736)
   107. RIV BOUNDARY (107) RIVER STAGE (   25.7155) IS LESS THAN RIVER BOTTOM
        (   25.7675)
   108. RIV BOUNDARY (108) RIVER STAGE (   25.7068) IS LESS THAN RIVER BOTTOM
        (   25.7588)
   109. RIV BOUNDARY (109) RIVER STAGE (   25.7007) IS LESS THAN RIVER BOTTOM
        (   25.7527)
   110. RIV BOUNDARY (110) RIVER STAGE (   25.6920) IS LESS THAN RIVER BOTTOM
        (   25.7440)
   111. RIV BOUNDARY (111) RIVER STAGE (   25.6833) IS LESS THAN RIVER BOTTOM
        (   25.7353)
   112. RIV BOUNDARY (112) RIVER STAGE (   25.6771) IS LESS THAN RIVER BOTTOM
        (   25.7291)
   113. RIV BOUNDARY (113) RIVER STAGE (   25.6684) IS LESS THAN RIVER BOTTOM
        (   25.7204)
   114. RIV BOUNDARY (114) RIVER STAGE (   25.6623) IS LESS THAN RIVER BOTTOM
        (   25.7143)
   115. RIV BOUNDARY (115) RIVER STAGE (   25.6562) IS LESS THAN RIVER BOTTOM
        (   25.7082)
   116. RIV BOUNDARY (116) RIVER STAGE (   25.6475) IS LESS THAN RIVER BOTTOM
        (   25.6995)
   117. RIV BOUNDARY (117) RIVER STAGE (   25.6413) IS LESS THAN RIVER BOTTOM
        (   25.6933)
   118. RIV BOUNDARY (118) RIVER STAGE (   25.6327) IS LESS THAN RIVER BOTTOM
        (   25.6847)
   119. RIV BOUNDARY (119) RIVER STAGE (   25.6240) IS LESS THAN RIVER BOTTOM
        (   25.6760)
   120. RIV BOUNDARY (120) RIVER STAGE (   25.6178) IS LESS THAN RIVER BOTTOM
        (   25.6698)
   121. RIV BOUNDARY (121) RIVER STAGE (   25.6091) IS LESS THAN RIVER BOTTOM
        (   25.6611)
   122. RIV BOUNDARY (122) RIVER STAGE (   25.6004) IS LESS THAN RIVER BOTTOM
        (   25.6524)
   123. RIV BOUNDARY (123) RIVER STAGE (   25.5943) IS LESS THAN RIVER BOTTOM
        (   25.6463)
   124. RIV BOUNDARY (124) RIVER STAGE (   25.5806) IS LESS THAN RIVER BOTTOM
        (   25.6326)
   125. RIV BOUNDARY (125) RIVER STAGE (   25.5744) IS LESS THAN RIVER BOTTOM
        (   25.6264)
   126. RIV BOUNDARY (126) RIVER STAGE (   25.5657) IS LESS THAN RIVER BOTTOM
        (   25.6177)
   127. RIV BOUNDARY (127) RIVER STAGE (   25.5571) IS LESS THAN RIVER BOTTOM
        (   25.6091)
   128. RIV BOUNDARY (128) RIVER STAGE (   25.5509) IS LESS THAN RIVER BOTTOM
        (   25.6029)
   129. RIV BOUNDARY (129) RIVER STAGE (   25.5422) IS LESS THAN RIVER BOTTOM
        (   25.5942)
   130. RIV BOUNDARY (130) RIVER STAGE (   25.5361) IS LESS THAN RIVER BOTTOM
        (   25.5881)
   131. RIV BOUNDARY (131) RIVER STAGE (   25.5299) IS LESS THAN RIVER BOTTOM
        (   25.5819)
   132. RIV BOUNDARY (132) RIVER STAGE (   25.5238) IS LESS THAN RIVER BOTTOM
        (   25.5758)
   133. RIV BOUNDARY (133) RIVER STAGE (   25.5151) IS LESS THAN RIVER BOTTOM
        (   25.5671)
   134. RIV BOUNDARY (134) RIVER STAGE (   25.5090) IS LESS THAN RIVER BOTTOM
        (   25.5610)
   135. RIV BOUNDARY (135) RIVER STAGE (   25.5003) IS LESS THAN RIVER BOTTOM
        (   25.5523)
   136. RIV BOUNDARY (136) RIVER STAGE (   25.4941) IS LESS THAN RIVER BOTTOM
        (   25.5461)
   137. RIV BOUNDARY (137) RIVER STAGE (   25.4880) IS LESS THAN RIVER BOTTOM
        (   25.5400)
   138. RIV BOUNDARY (138) RIVER STAGE (   25.4819) IS LESS THAN RIVER BOTTOM
        (   25.5339)
   139. RIV BOUNDARY (139) RIVER STAGE (   25.4757) IS LESS THAN RIVER BOTTOM
        (   25.5277)
   140. RIV BOUNDARY (140) RIVER STAGE (   25.4696) IS LESS THAN RIVER BOTTOM
        (   25.5216)
   141. RIV BOUNDARY (141) RIVER STAGE (   25.4634) IS LESS THAN RIVER BOTTOM
        (   25.5154)
   142. RIV BOUNDARY (142) RIVER STAGE (   25.4573) IS LESS THAN RIVER BOTTOM
        (   25.5093)
   143. RIV BOUNDARY (143) RIVER STAGE (   25.4511) IS LESS THAN RIVER BOTTOM
        (   25.5031)
   144. RIV BOUNDARY (144) RIVER STAGE (   25.4450) IS LESS THAN RIVER BOTTOM
        (   25.4970)
   145. RIV BOUNDARY (145) RIVER STAGE (   25.4389) IS LESS THAN RIVER BOTTOM
        (   25.4909)
   146. RIV BOUNDARY (146) RIVER STAGE (   25.4302) IS LESS THAN RIVER BOTTOM
        (   25.4822)
   147. RIV BOUNDARY (147) RIVER STAGE (   25.4240) IS LESS THAN RIVER BOTTOM
        (   25.4760)
   148. RIV BOUNDARY (148) RIVER STAGE (   25.4153) IS LESS THAN RIVER BOTTOM
        (   25.4673)
   149. RIV BOUNDARY (149) RIVER STAGE (   25.4092) IS LESS THAN RIVER BOTTOM
        (   25.4612)
   150. RIV BOUNDARY (150) RIVER STAGE (   25.4005) IS LESS THAN RIVER BOTTOM
        (   25.4525)
   151. RIV BOUNDARY (151) RIVER STAGE (   25.3944) IS LESS THAN RIVER BOTTOM
        (   25.4464)
   152. RIV BOUNDARY (152) RIVER STAGE (   25.3857) IS LESS THAN RIVER BOTTOM
        (   25.4377)
   153. RIV BOUNDARY (153) RIVER STAGE (   25.3795) IS LESS THAN RIVER BOTTOM
        (   25.4315)
   154. RIV BOUNDARY (154) RIVER STAGE (   25.3709) IS LESS THAN RIVER BOTTOM
        (   25.4229)
   155. RIV BOUNDARY (155) RIVER STAGE (   25.3647) IS LESS THAN RIVER BOTTOM
        (   25.4167)
   156. RIV BOUNDARY (156) RIVER STAGE (   25.3560) IS LESS THAN RIVER BOTTOM
        (   25.4080)
   157. RIV BOUNDARY (157) RIVER STAGE (   25.3499) IS LESS THAN RIVER BOTTOM
        (   25.4019)
   158. RIV BOUNDARY (158) RIVER STAGE (   25.3412) IS LESS THAN RIVER BOTTOM
        (   25.3932)
   159. RIV BOUNDARY (159) RIVER STAGE (   25.3351) IS LESS THAN RIVER BOTTOM
        (   25.3871)
   160. RIV BOUNDARY (160) RIVER STAGE (   25.3264) IS LESS THAN RIVER BOTTOM
        (   25.3784)
   161. RIV BOUNDARY (161) RIVER STAGE (   25.3202) IS LESS THAN RIVER BOTTOM
        (   25.3722)
   162. RIV BOUNDARY (162) RIVER STAGE (   25.3141) IS LESS THAN RIVER BOTTOM
        (   25.3661)
   163. RIV BOUNDARY (163) RIVER STAGE (   25.3079) IS LESS THAN RIVER BOTTOM
        (   25.3599)
   164. RIV BOUNDARY (164) RIVER STAGE (   25.3018) IS LESS THAN RIVER BOTTOM
        (   25.3538)
   165. RIV BOUNDARY (165) RIVER STAGE (   25.2957) IS LESS THAN RIVER BOTTOM
        (   25.3477)
   166. RIV BOUNDARY (166) RIVER STAGE (   25.2895) IS LESS THAN RIVER BOTTOM
        (   25.3415)
   167. RIV BOUNDARY (167) RIVER STAGE (   25.2834) IS LESS THAN RIVER BOTTOM
        (   25.3354)
   168. RIV BOUNDARY (168) RIVER STAGE (   25.2772) IS LESS THAN RIVER BOTTOM
        (   25.3292)
   169. RIV BOUNDARY (169) RIVER STAGE (   25.2711) IS LESS THAN RIVER BOTTOM
        (   25.3231)
   170. RIV BOUNDARY (170) RIVER STAGE (   25.2650) IS LESS THAN RIVER BOTTOM
        (   25.3170)
   171. RIV BOUNDARY (171) RIVER STAGE (   25.2588) IS LESS THAN RIVER BOTTOM
        (   25.3108)
   172. RIV BOUNDARY (172) RIVER STAGE (   25.2527) IS LESS THAN RIVER BOTTOM
        (   25.3047)
   173. RIV BOUNDARY (173) RIVER STAGE (   25.2465) IS LESS THAN RIVER BOTTOM
        (   25.2985)
   174. RIV BOUNDARY (174) RIVER STAGE (   25.2404) IS LESS THAN RIVER BOTTOM
        (   25.2924)
   175. RIV BOUNDARY (175) RIVER STAGE (   25.2317) IS LESS THAN RIVER BOTTOM
        (   25.2837)
   176. RIV BOUNDARY (176) RIVER STAGE (   25.2256) IS LESS THAN RIVER BOTTOM
        (   25.2776)
   177. RIV BOUNDARY (177) RIVER STAGE (   25.2169) IS LESS THAN RIVER BOTTOM
        (   25.2689)
   178. RIV BOUNDARY (178) RIVER STAGE (   25.2107) IS LESS THAN RIVER BOTTOM
        (   25.2627)
   179. RIV BOUNDARY (179) RIVER STAGE (   25.2046) IS LESS THAN RIVER BOTTOM
        (   25.2566)
   180. RIV BOUNDARY (180) RIVER STAGE (   25.1984) IS LESS THAN RIVER BOTTOM
        (   25.2504)
   181. RIV BOUNDARY (181) RIVER STAGE (   25.1923) IS LESS THAN RIVER BOTTOM
        (   25.2443)
   182. RIV BOUNDARY (182) RIVER STAGE (   25.1862) IS LESS THAN RIVER BOTTOM
        (   25.2382)
   183. RIV BOUNDARY (183) RIVER STAGE (   25.1800) IS LESS THAN RIVER BOTTOM
        (   25.2320)
   184. RIV BOUNDARY (184) RIVER STAGE (   25.1739) IS LESS THAN RIVER BOTTOM
        (   25.2259)
   185. RIV BOUNDARY (185) RIVER STAGE (   25.1677) IS LESS THAN RIVER BOTTOM
        (   25.2197)
   186. RIV BOUNDARY (186) RIVER STAGE (   25.1616) IS LESS THAN RIVER BOTTOM
        (   25.2136)
   187. RIV BOUNDARY (187) RIVER STAGE (   25.1554) IS LESS THAN RIVER BOTTOM
        (   25.2074)
   188. RIV BOUNDARY (188) RIVER STAGE (   25.1493) IS LESS THAN RIVER BOTTOM
        (   25.2013)
   189. RIV BOUNDARY (189) RIVER STAGE (   25.1432) IS LESS THAN RIVER BOTTOM
        (   25.1952)
   190. RIV BOUNDARY (190) RIVER STAGE (   25.1370) IS LESS THAN RIVER BOTTOM
        (   25.1890)
   191. RIV BOUNDARY (191) RIVER STAGE (   25.1309) IS LESS THAN RIVER BOTTOM
        (   25.1829)
   192. RIV BOUNDARY (192) RIVER STAGE (   25.1247) IS LESS THAN RIVER BOTTOM
        (   25.1767)
   193. RIV BOUNDARY (193) RIVER STAGE (   25.1186) IS LESS THAN RIVER BOTTOM
        (   25.1706)
   194. RIV BOUNDARY (194) RIVER STAGE (   25.1124) IS LESS THAN RIVER BOTTOM
        (   25.1644)
   195. RIV BOUNDARY (195) RIVER STAGE (   25.1063) IS LESS THAN RIVER BOTTOM
        (   25.1583)
   196. RIV BOUNDARY (196) RIVER STAGE (   25.1002) IS LESS THAN RIVER BOTTOM
        (   25.1522)
   197. RIV BOUNDARY (197) RIVER STAGE (   25.0940) IS LESS THAN RIVER BOTTOM
        (   25.1460)
   198. RIV BOUNDARY (198) RIVER STAGE (   25.0879) IS LESS THAN RIVER BOTTOM
        (   25.1399)
   199. RIV BOUNDARY (199) RIVER STAGE (   25.0817) IS LESS THAN RIVER BOTTOM
        (   25.1337)
   200. RIV BOUNDARY (200) RIVER STAGE (   25.0756) IS LESS THAN RIVER BOTTOM
        (   25.1276)
   201. RIV BOUNDARY (201) RIVER STAGE (   25.0695) IS LESS THAN RIVER BOTTOM
        (   25.1215)
   202. RIV BOUNDARY (202) RIVER STAGE (   25.0633) IS LESS THAN RIVER BOTTOM
        (   25.1153)
   203. RIV BOUNDARY (203) RIVER STAGE (   25.0572) IS LESS THAN RIVER BOTTOM
        (   25.1092)
   204. RIV BOUNDARY (204) RIVER STAGE (   25.0510) IS LESS THAN RIVER BOTTOM
        (   25.1030)
   205. RIV BOUNDARY (205) RIVER STAGE (   25.0449) IS LESS THAN RIVER BOTTOM
        (   25.0969)
   206. RIV BOUNDARY (206) RIVER STAGE (   25.0387) IS LESS THAN RIVER BOTTOM
        (   25.0907)
   207. RIV BOUNDARY (207) RIVER STAGE (   25.0326) IS LESS THAN RIVER BOTTOM
        (   25.0846)
   208. RIV BOUNDARY (208) RIVER STAGE (   25.0265) IS LESS THAN RIVER BOTTOM
        (   25.0785)
   209. RIV BOUNDARY (209) RIVER STAGE (   25.0203) IS LESS THAN RIVER BOTTOM
        (   25.0723)
   210. RIV BOUNDARY (210) RIVER STAGE (   25.0142) IS LESS THAN RIVER BOTTOM
        (   25.0662)
   211. RIV BOUNDARY (211) RIVER STAGE (   25.0080) IS LESS THAN RIVER BOTTOM
        (   25.0600)
   212. RIV BOUNDARY (212) RIVER STAGE (   25.0019) IS LESS THAN RIVER BOTTOM
        (   25.0539)
   213. RIV BOUNDARY (213) RIVER STAGE (   24.9957) IS LESS THAN RIVER BOTTOM
        (   25.0477)
   214. RIV BOUNDARY (214) RIVER STAGE (   24.9896) IS LESS THAN RIVER BOTTOM
        (   25.0416)
   215. RIV BOUNDARY (215) RIVER STAGE (   24.9835) IS LESS THAN RIVER BOTTOM
        (   25.0355)
   216. RIV BOUNDARY (216) RIVER STAGE (   24.9773) IS LESS THAN RIVER BOTTOM
        (   25.0293)
   217. RIV BOUNDARY (217) RIVER STAGE (   24.9712) IS LESS THAN RIVER BOTTOM
        (   25.0232)
   218. RIV BOUNDARY (218) RIVER STAGE (   24.9650) IS LESS THAN RIVER BOTTOM
        (   25.0170)
   219. RIV BOUNDARY (219) RIVER STAGE (   24.9589) IS LESS THAN RIVER BOTTOM
        (   25.0109)
   220. RIV BOUNDARY (220) RIVER STAGE (   24.9528) IS LESS THAN RIVER BOTTOM
        (   25.0048)
   221. RIV BOUNDARY (221) RIVER STAGE (   24.9466) IS LESS THAN RIVER BOTTOM
        (   24.9986)
   222. RIV BOUNDARY (222) RIVER STAGE (   24.9405) IS LESS THAN RIVER BOTTOM
        (   24.9925)
   223. RIV BOUNDARY (223) RIVER STAGE (   24.9343) IS LESS THAN RIVER BOTTOM
        (   24.9863)
   224. RIV BOUNDARY (224) RIVER STAGE (   24.9282) IS LESS THAN RIVER BOTTOM
        (   24.9802)
   225. RIV BOUNDARY (225) RIVER STAGE (   24.9220) IS LESS THAN RIVER BOTTOM
        (   24.9740)
   226. RIV BOUNDARY (226) RIVER STAGE (   24.9159) IS LESS THAN RIVER BOTTOM
        (   24.9679)
   227. RIV BOUNDARY (227) RIVER STAGE (   24.9098) IS LESS THAN RIVER BOTTOM
        (   24.9618)
   228. RIV BOUNDARY (228) RIVER STAGE (   24.9036) IS LESS THAN RIVER BOTTOM
        (   24.9556)
   229. RIV BOUNDARY (229) RIVER STAGE (   24.8975) IS LESS THAN RIVER BOTTOM
        (   24.9495)
   230. RIV BOUNDARY (230) RIVER STAGE (   24.8913) IS LESS THAN RIVER BOTTOM
        (   24.9433)
   231. RIV BOUNDARY (231) RIVER STAGE (   24.8826) IS LESS THAN RIVER BOTTOM
        (   24.9346)
   232. RIV BOUNDARY (232) RIVER STAGE (   24.8765) IS LESS THAN RIVER BOTTOM
        (   24.9285)
   233. RIV BOUNDARY (233) RIVER STAGE (   24.8678) IS LESS THAN RIVER BOTTOM
        (   24.9198)
   234. RIV BOUNDARY (234) RIVER STAGE (   24.8617) IS LESS THAN RIVER BOTTOM
        (   24.9137)
   235. RIV BOUNDARY (235) RIVER STAGE (   24.8555) IS LESS THAN RIVER BOTTOM
        (   24.9075)
   236. RIV BOUNDARY (236) RIVER STAGE (   24.8494) IS LESS THAN RIVER BOTTOM
        (   24.9014)
   237. RIV BOUNDARY (237) RIVER STAGE (   24.8432) IS LESS THAN RIVER BOTTOM
        (   24.8952)
   238. RIV BOUNDARY (238) RIVER STAGE (   24.8346) IS LESS THAN RIVER BOTTOM
        (   24.8866)
   239. RIV BOUNDARY (239) RIVER STAGE (   24.8284) IS LESS THAN RIVER BOTTOM
        (   24.8804)
   240. RIV BOUNDARY (240) RIVER STAGE (   24.8197) IS LESS THAN RIVER BOTTOM
        (   24.8717)
   241. RIV BOUNDARY (241) RIVER STAGE (   24.8136) IS LESS THAN RIVER BOTTOM
        (   24.8656)
   242. RIV BOUNDARY (242) RIVER STAGE (   24.8074) IS LESS THAN RIVER BOTTOM
        (   24.8594)
   243. RIV BOUNDARY (243) RIVER STAGE (   24.8013) IS LESS THAN RIVER BOTTOM
        (   24.8533)
   244. RIV BOUNDARY (244) RIVER STAGE (   24.7926) IS LESS THAN RIVER BOTTOM
        (   24.8446)
   245. RIV BOUNDARY (245) RIVER STAGE (   24.7865) IS LESS THAN RIVER BOTTOM
        (   24.8385)
   246. RIV BOUNDARY (246) RIVER STAGE (   24.7778) IS LESS THAN RIVER BOTTOM
        (   24.8298)
   247. RIV BOUNDARY (247) RIVER STAGE (   24.7691) IS LESS THAN RIVER BOTTOM
        (   24.8211)
   248. RIV BOUNDARY (248) RIVER STAGE (   24.7630) IS LESS THAN RIVER BOTTOM
        (   24.8150)
   249. RIV BOUNDARY (249) RIVER STAGE (   24.7543) IS LESS THAN RIVER BOTTOM
        (   24.8063)
   250. RIV BOUNDARY (250) RIVER STAGE (   24.7481) IS LESS THAN RIVER BOTTOM
        (   24.8001)
   251. RIV BOUNDARY (251) RIVER STAGE (   24.7420) IS LESS THAN RIVER BOTTOM
        (   24.7940)
   252. RIV BOUNDARY (252) RIVER STAGE (   24.7358) IS LESS THAN RIVER BOTTOM
        (   24.7878)
   253. RIV BOUNDARY (253) RIVER STAGE (   24.7272) IS LESS THAN RIVER BOTTOM
        (   24.7792)
   254. RIV BOUNDARY (254) RIVER STAGE (   24.7210) IS LESS THAN RIVER BOTTOM
        (   24.7730)
   255. RIV BOUNDARY (255) RIVER STAGE (   24.7123) IS LESS THAN RIVER BOTTOM
        (   24.7643)
   256. RIV BOUNDARY (256) RIVER STAGE (   24.7062) IS LESS THAN RIVER BOTTOM
        (   24.7582)
   257. RIV BOUNDARY (257) RIVER STAGE (   24.7000) IS LESS THAN RIVER BOTTOM
        (   24.7520)
   258. RIV BOUNDARY (258) RIVER STAGE (   24.6939) IS LESS THAN RIVER BOTTOM
        (   24.7459)
   259. RIV BOUNDARY (259) RIVER STAGE (   24.6878) IS LESS THAN RIVER BOTTOM
        (   24.7398)
   260. RIV BOUNDARY (260) RIVER STAGE (   24.6816) IS LESS THAN RIVER BOTTOM
        (   24.7336)
   261. RIV BOUNDARY (261) RIVER STAGE (   24.6755) IS LESS THAN RIVER BOTTOM
        (   24.7275)
   262. RIV BOUNDARY (262) RIVER STAGE (   24.6693) IS LESS THAN RIVER BOTTOM
        (   24.7213)
   263. RIV BOUNDARY (263) RIVER STAGE (   24.6632) IS LESS THAN RIVER BOTTOM
        (   24.7152)
   264. RIV BOUNDARY (264) RIVER STAGE (   24.6570) IS LESS THAN RIVER BOTTOM
        (   24.7090)
   265. RIV BOUNDARY (265) RIVER STAGE (   24.6509) IS LESS THAN RIVER BOTTOM
        (   24.7029)
   266. RIV BOUNDARY (266) RIVER STAGE (   24.6422) IS LESS THAN RIVER BOTTOM
        (   24.6942)
   267. RIV BOUNDARY (267) RIVER STAGE (   24.6361) IS LESS THAN RIVER BOTTOM
        (   24.6881)
   268. RIV BOUNDARY (268) RIVER STAGE (   24.6274) IS LESS THAN RIVER BOTTOM
        (   24.6794)
   269. RIV BOUNDARY (269) RIVER STAGE (   24.6187) IS LESS THAN RIVER BOTTOM
        (   24.6707)
   270. RIV BOUNDARY (270) RIVER STAGE (   24.6126) IS LESS THAN RIVER BOTTOM
        (   24.6646)
   271. RIV BOUNDARY (271) RIVER STAGE (   24.6039) IS LESS THAN RIVER BOTTOM
        (   24.6559)
   272. RIV BOUNDARY (272) RIVER STAGE (   24.5977) IS LESS THAN RIVER BOTTOM
        (   24.6497)
   273. RIV BOUNDARY (273) RIVER STAGE (   24.5916) IS LESS THAN RIVER BOTTOM
        (   24.6436)
   274. RIV BOUNDARY (274) RIVER STAGE (   24.5854) IS LESS THAN RIVER BOTTOM
        (   24.6374)
   275. RIV BOUNDARY (275) RIVER STAGE (   24.5793) IS LESS THAN RIVER BOTTOM
        (   24.6313)
   276. RIV BOUNDARY (276) RIVER STAGE (   24.5706) IS LESS THAN RIVER BOTTOM
        (   24.6226)
   277. RIV BOUNDARY (277) RIVER STAGE (   24.5645) IS LESS THAN RIVER BOTTOM
        (   24.6165)
   278. RIV BOUNDARY (278) RIVER STAGE (   24.5558) IS LESS THAN RIVER BOTTOM
        (   24.6078)
   279. RIV BOUNDARY (279) RIVER STAGE (   24.5471) IS LESS THAN RIVER BOTTOM
        (   24.5991)
   280. RIV BOUNDARY (280) RIVER STAGE (   24.5410) IS LESS THAN RIVER BOTTOM
        (   24.5930)
   281. RIV BOUNDARY (281) RIVER STAGE (   24.5323) IS LESS THAN RIVER BOTTOM
        (   24.5843)
   282. RIV BOUNDARY (282) RIVER STAGE (   24.5261) IS LESS THAN RIVER BOTTOM
        (   24.5781)
   283. RIV BOUNDARY (283) RIVER STAGE (   24.5200) IS LESS THAN RIVER BOTTOM
        (   24.5720)
   284. RIV BOUNDARY (284) RIVER STAGE (   24.5138) IS LESS THAN RIVER BOTTOM
        (   24.5658)
   285. RIV BOUNDARY (285) RIVER STAGE (   24.5077) IS LESS THAN RIVER BOTTOM
        (   24.5597)
   286. RIV BOUNDARY (286) RIVER STAGE (   24.4990) IS LESS THAN RIVER BOTTOM
        (   24.5510)
   287. RIV BOUNDARY (287) RIVER STAGE (   24.4929) IS LESS THAN RIVER BOTTOM
        (   24.5449)
   288. RIV BOUNDARY (288) RIVER STAGE (   24.4842) IS LESS THAN RIVER BOTTOM
        (   24.5362)
   289. RIV BOUNDARY (289) RIVER STAGE (   24.4780) IS LESS THAN RIVER BOTTOM
        (   24.5300)
   290. RIV BOUNDARY (290) RIVER STAGE (   24.4719) IS LESS THAN RIVER BOTTOM
        (   24.5239)
   291. RIV BOUNDARY (291) RIVER STAGE (   24.4632) IS LESS THAN RIVER BOTTOM
        (   24.5152)
   292. RIV BOUNDARY (292) RIVER STAGE (   24.4571) IS LESS THAN RIVER BOTTOM
        (   24.5091)
   293. RIV BOUNDARY (293) RIVER STAGE (   24.4433) IS LESS THAN RIVER BOTTOM
        (   24.4953)
   294. RIV BOUNDARY (294) RIVER STAGE (   24.4372) IS LESS THAN RIVER BOTTOM
        (   24.4892)
   295. RIV BOUNDARY (295) RIVER STAGE (   24.4285) IS LESS THAN RIVER BOTTOM
        (   24.4805)
   296. RIV BOUNDARY (296) RIVER STAGE (   24.4224) IS LESS THAN RIVER BOTTOM
        (   24.4744)
   297. RIV BOUNDARY (297) RIVER STAGE (   24.4162) IS LESS THAN RIVER BOTTOM
        (   24.4682)
   298. RIV BOUNDARY (298) RIVER STAGE (   24.4101) IS LESS THAN RIVER BOTTOM
        (   24.4621)
   299. RIV BOUNDARY (299) RIVER STAGE (   24.4039) IS LESS THAN RIVER BOTTOM
        (   24.4559)
   300. RIV BOUNDARY (300) RIVER STAGE (   24.3953) IS LESS THAN RIVER BOTTOM
        (   24.4473)
   301. RIV BOUNDARY (301) RIVER STAGE (   24.3891) IS LESS THAN RIVER BOTTOM
        (   24.4411)
   302. RIV BOUNDARY (302) RIVER STAGE (   24.3754) IS LESS THAN RIVER BOTTOM
        (   24.4274)
   303. RIV BOUNDARY (303) RIVER STAGE (   24.3692) IS LESS THAN RIVER BOTTOM
        (   24.4212)
   304. RIV BOUNDARY (304) RIVER STAGE (   24.3606) IS LESS THAN RIVER BOTTOM
        (   24.4126)
   305. RIV BOUNDARY (305) RIVER STAGE (   24.3519) IS LESS THAN RIVER BOTTOM
        (   24.4039)
   306. RIV BOUNDARY (306) RIVER STAGE (   24.3457) IS LESS THAN RIVER BOTTOM
        (   24.3977)
   307. RIV BOUNDARY (307) RIVER STAGE (   24.3320) IS LESS THAN RIVER BOTTOM
        (   24.3840)
   308. RIV BOUNDARY (308) RIVER STAGE (   24.3258) IS LESS THAN RIVER BOTTOM
        (   24.3778)
   309. RIV BOUNDARY (309) RIVER STAGE (   24.3172) IS LESS THAN RIVER BOTTOM
        (   24.3692)
   310. RIV BOUNDARY (310) RIVER STAGE (   24.3110) IS LESS THAN RIVER BOTTOM
        (   24.3630)
   311. RIV BOUNDARY (311) RIVER STAGE (   24.3049) IS LESS THAN RIVER BOTTOM
        (   24.3569)
   312. RIV BOUNDARY (312) RIVER STAGE (   24.2987) IS LESS THAN RIVER BOTTOM
        (   24.3507)
   313. RIV BOUNDARY (313) RIVER STAGE (   24.2926) IS LESS THAN RIVER BOTTOM
        (   24.3446)
   314. RIV BOUNDARY (314) RIVER STAGE (   24.2865) IS LESS THAN RIVER BOTTOM
        (   24.3385)
   315. RIV BOUNDARY (315) RIVER STAGE (   24.2803) IS LESS THAN RIVER BOTTOM
        (   24.3323)
   316. RIV BOUNDARY (316) RIVER STAGE (   24.2716) IS LESS THAN RIVER BOTTOM
        (   24.3236)
   317. RIV BOUNDARY (317) RIVER STAGE (   24.2655) IS LESS THAN RIVER BOTTOM
        (   24.3175)
   318. RIV BOUNDARY (318) RIVER STAGE (   24.2517) IS LESS THAN RIVER BOTTOM
        (   24.3037)
   319. RIV BOUNDARY (319) RIVER STAGE (   24.2456) IS LESS THAN RIVER BOTTOM
        (   24.2976)
   320. RIV BOUNDARY (320) RIVER STAGE (   24.2319) IS LESS THAN RIVER BOTTOM
        (   24.2839)
   321. RIV BOUNDARY (321) RIVER STAGE (   24.2257) IS LESS THAN RIVER BOTTOM
        (   24.2777)
   322. RIV BOUNDARY (322) RIVER STAGE (   24.2120) IS LESS THAN RIVER BOTTOM
        (   24.2640)
   323. RIV BOUNDARY (323) RIVER STAGE (   24.2058) IS LESS THAN RIVER BOTTOM
        (   24.2578)
   324. RIV BOUNDARY (324) RIVER STAGE (   24.1972) IS LESS THAN RIVER BOTTOM
        (   24.2492)
   325. RIV BOUNDARY (325) RIVER STAGE (   24.1910) IS LESS THAN RIVER BOTTOM
        (   24.2430)
   326. RIV BOUNDARY (326) RIVER STAGE (   24.1849) IS LESS THAN RIVER BOTTOM
        (   24.2369)
   327. RIV BOUNDARY (327) RIVER STAGE (   24.1787) IS LESS THAN RIVER BOTTOM
        (   24.2307)
   328. RIV BOUNDARY (328) RIVER STAGE (   24.1726) IS LESS THAN RIVER BOTTOM
        (   24.2246)
   329. RIV BOUNDARY (329) RIVER STAGE (   24.1665) IS LESS THAN RIVER BOTTOM
        (   24.2185)
   330. RIV BOUNDARY (330) RIVER STAGE (   24.1603) IS LESS THAN RIVER BOTTOM
        (   24.2123)
   331. RIV BOUNDARY (331) RIVER STAGE (   24.1542) IS LESS THAN RIVER BOTTOM
        (   24.2062)
   332. RIV BOUNDARY (332) RIVER STAGE (   24.1480) IS LESS THAN RIVER BOTTOM
        (   24.2000)
   333. RIV BOUNDARY (333) RIVER STAGE (   24.1419) IS LESS THAN RIVER BOTTOM
        (   24.1939)
   334. RIV BOUNDARY (334) RIVER STAGE (   24.1357) IS LESS THAN RIVER BOTTOM
        (   24.1877)
   335. RIV BOUNDARY (335) RIVER STAGE (   24.1296) IS LESS THAN RIVER BOTTOM
        (   24.1816)
   336. RIV BOUNDARY (336) RIVER STAGE (   24.1235) IS LESS THAN RIVER BOTTOM
        (   24.1755)
   337. RIV BOUNDARY (337) RIVER STAGE (   24.1173) IS LESS THAN RIVER BOTTOM
        (   24.1693)
   338. RIV BOUNDARY (338) RIVER STAGE (   24.1112) IS LESS THAN RIVER BOTTOM
        (   24.1632)
   339. RIV BOUNDARY (339) RIVER STAGE (   24.1050) IS LESS THAN RIVER BOTTOM
        (   24.1570)
   340. RIV BOUNDARY (340) RIVER STAGE (   24.0989) IS LESS THAN RIVER BOTTOM
        (   24.1509)
   341. RIV BOUNDARY (341) RIVER STAGE (   24.0927) IS LESS THAN RIVER BOTTOM
        (   24.1447)
   342. RIV BOUNDARY (342) RIVER STAGE (   24.0866) IS LESS THAN RIVER BOTTOM
        (   24.1386)
   343. RIV BOUNDARY (343) RIVER STAGE (   24.0805) IS LESS THAN RIVER BOTTOM
        (   24.1325)
   344. RIV BOUNDARY (344) RIVER STAGE (   24.0743) IS LESS THAN RIVER BOTTOM
        (   24.1263)
   345. RIV BOUNDARY (345) RIVER STAGE (   24.0682) IS LESS THAN RIVER BOTTOM
        (   24.1202)
   346. RIV BOUNDARY (346) RIVER STAGE (   24.0595) IS LESS THAN RIVER BOTTOM
        (   24.1115)
   347. RIV BOUNDARY (347) RIVER STAGE (   24.0533) IS LESS THAN RIVER BOTTOM
        (   24.1053)
   348. RIV BOUNDARY (348) RIVER STAGE (   24.0447) IS LESS THAN RIVER BOTTOM
        (   24.0967)
   349. RIV BOUNDARY (349) RIVER STAGE (   24.0385) IS LESS THAN RIVER BOTTOM
        (   24.0905)
   350. RIV BOUNDARY (350) RIVER STAGE (   24.0324) IS LESS THAN RIVER BOTTOM
        (   24.0844)
   351. RIV BOUNDARY (351) RIVER STAGE (   24.0262) IS LESS THAN RIVER BOTTOM
        (   24.0782)
   352. RIV BOUNDARY (352) RIVER STAGE (   24.0175) IS LESS THAN RIVER BOTTOM
        (   24.0695)
   353. RIV BOUNDARY (353) RIVER STAGE (   24.0114) IS LESS THAN RIVER BOTTOM
        (   24.0634)
   354. RIV BOUNDARY (354) RIVER STAGE (   23.9977) IS LESS THAN RIVER BOTTOM
        (   24.0497)
   355. RIV BOUNDARY (355) RIVER STAGE (   23.9915) IS LESS THAN RIVER BOTTOM
        (   24.0435)
   356. RIV BOUNDARY (356) RIVER STAGE (   23.9828) IS LESS THAN RIVER BOTTOM
        (   24.0348)
   357. RIV BOUNDARY (357) RIVER STAGE (   23.9767) IS LESS THAN RIVER BOTTOM
        (   24.0287)
   358. RIV BOUNDARY (358) RIVER STAGE (   23.9706) IS LESS THAN RIVER BOTTOM
        (   24.0226)
   359. RIV BOUNDARY (359) RIVER STAGE (   23.9644) IS LESS THAN RIVER BOTTOM
        (   24.0164)
   360. RIV BOUNDARY (360) RIVER STAGE (   23.9583) IS LESS THAN RIVER BOTTOM
        (   24.0103)
   361. RIV BOUNDARY (361) RIVER STAGE (   23.9496) IS LESS THAN RIVER BOTTOM
        (   24.0016)
   362. RIV BOUNDARY (362) RIVER STAGE (   23.9434) IS LESS THAN RIVER BOTTOM
        (   23.9954)
   363. RIV BOUNDARY (363) RIVER STAGE (   23.9348) IS LESS THAN RIVER BOTTOM
        (   23.9868)
   364. RIV BOUNDARY (364) RIVER STAGE (   23.9286) IS LESS THAN RIVER BOTTOM
        (   23.9806)
   365. RIV BOUNDARY (365) RIVER STAGE (   23.9199) IS LESS THAN RIVER BOTTOM
        (   23.9719)
   366. RIV BOUNDARY (366) RIVER STAGE (   23.9138) IS LESS THAN RIVER BOTTOM
        (   23.9658)
   367. RIV BOUNDARY (367) RIVER STAGE (   23.9051) IS LESS THAN RIVER BOTTOM
        (   23.9571)
   368. RIV BOUNDARY (368) RIVER STAGE (   23.8990) IS LESS THAN RIVER BOTTOM
        (   23.9510)
   369. RIV BOUNDARY (369) RIVER STAGE (   23.8928) IS LESS THAN RIVER BOTTOM
        (   23.9448)
   370. RIV BOUNDARY (370) RIVER STAGE (   23.8867) IS LESS THAN RIVER BOTTOM
        (   23.9387)
   371. RIV BOUNDARY (371) RIVER STAGE (   23.8805) IS LESS THAN RIVER BOTTOM
        (   23.9325)
   372. RIV BOUNDARY (372) RIVER STAGE (   23.8744) IS LESS THAN RIVER BOTTOM
        (   23.9264)
   373. RIV BOUNDARY (373) RIVER STAGE (   23.8682) IS LESS THAN RIVER BOTTOM
        (   23.9202)
   374. RIV BOUNDARY (374) RIVER STAGE (   23.8621) IS LESS THAN RIVER BOTTOM
        (   23.9141)
   375. RIV BOUNDARY (375) RIVER STAGE (   23.8534) IS LESS THAN RIVER BOTTOM
        (   23.9054)
   376. RIV BOUNDARY (376) RIVER STAGE (   23.8473) IS LESS THAN RIVER BOTTOM
        (   23.8993)
   377. RIV BOUNDARY (377) RIVER STAGE (   23.8386) IS LESS THAN RIVER BOTTOM
        (   23.8906)
   378. RIV BOUNDARY (378) RIVER STAGE (   23.8324) IS LESS THAN RIVER BOTTOM
        (   23.8844)
   379. RIV BOUNDARY (379) RIVER STAGE (   23.8238) IS LESS THAN RIVER BOTTOM
        (   23.8758)
   380. RIV BOUNDARY (380) RIVER STAGE (   23.8176) IS LESS THAN RIVER BOTTOM
        (   23.8696)
   381. RIV BOUNDARY (381) RIVER STAGE (   23.8089) IS LESS THAN RIVER BOTTOM
        (   23.8609)
   382. RIV BOUNDARY (382) RIVER STAGE (   23.8028) IS LESS THAN RIVER BOTTOM
        (   23.8548)
   383. RIV BOUNDARY (383) RIVER STAGE (   23.7966) IS LESS THAN RIVER BOTTOM
        (   23.8486)
   384. RIV BOUNDARY (384) RIVER STAGE (   23.7905) IS LESS THAN RIVER BOTTOM
        (   23.8425)
   385. RIV BOUNDARY (385) RIVER STAGE (   23.7844) IS LESS THAN RIVER BOTTOM
        (   23.8364)
   386. RIV BOUNDARY (386) RIVER STAGE (   23.7782) IS LESS THAN RIVER BOTTOM
        (   23.8302)
   387. RIV BOUNDARY (387) RIVER STAGE (   23.7721) IS LESS THAN RIVER BOTTOM
        (   23.8241)
   388. RIV BOUNDARY (388) RIVER STAGE (   23.7659) IS LESS THAN RIVER BOTTOM
        (   23.8179)
   389. RIV BOUNDARY (389) RIVER STAGE (   23.7598) IS LESS THAN RIVER BOTTOM
        (   23.8118)
   390. RIV BOUNDARY (390) RIVER STAGE (   23.7537) IS LESS THAN RIVER BOTTOM
        (   23.8057)
   391. RIV BOUNDARY (391) RIVER STAGE (   23.7475) IS LESS THAN RIVER BOTTOM
        (   23.7995)
   392. RIV BOUNDARY (392) RIVER STAGE (   23.7414) IS LESS THAN RIVER BOTTOM
        (   23.7934)
   393. RIV BOUNDARY (393) RIVER STAGE (   23.7352) IS LESS THAN RIVER BOTTOM
        (   23.7872)
   394. RIV BOUNDARY (394) RIVER STAGE (   23.7291) IS LESS THAN RIVER BOTTOM
        (   23.7811)
   395. RIV BOUNDARY (395) RIVER STAGE (   23.7229) IS LESS THAN RIVER BOTTOM
        (   23.7749)
   396. RIV BOUNDARY (396) RIVER STAGE (   23.7168) IS LESS THAN RIVER BOTTOM
        (   23.7688)
   397. RIV BOUNDARY (397) RIVER STAGE (   23.7081) IS LESS THAN RIVER BOTTOM
        (   23.7601)
   398. RIV BOUNDARY (398) RIVER STAGE (   23.7020) IS LESS THAN RIVER BOTTOM
        (   23.7540)
   399. RIV BOUNDARY (399) RIVER STAGE (   23.6933) IS LESS THAN RIVER BOTTOM
        (   23.7453)
   400. RIV BOUNDARY (400) RIVER STAGE (   23.6871) IS LESS THAN RIVER BOTTOM
        (   23.7391)
   401. RIV BOUNDARY (401) RIVER STAGE (   23.6810) IS LESS THAN RIVER BOTTOM
        (   23.7330)
   402. RIV BOUNDARY (402) RIVER STAGE (   23.6749) IS LESS THAN RIVER BOTTOM
        (   23.7269)
   403. RIV BOUNDARY (403) RIVER STAGE (   23.6687) IS LESS THAN RIVER BOTTOM
        (   23.7207)
   404. RIV BOUNDARY (404) RIVER STAGE (   23.6626) IS LESS THAN RIVER BOTTOM
        (   23.7146)
   405. RIV BOUNDARY (405) RIVER STAGE (   23.6564) IS LESS THAN RIVER BOTTOM
        (   23.7084)
   406. RIV BOUNDARY (406) RIVER STAGE (   23.6503) IS LESS THAN RIVER BOTTOM
        (   23.7023)
   407. RIV BOUNDARY (407) RIVER STAGE (   23.6416) IS LESS THAN RIVER BOTTOM
        (   23.6936)
   408. RIV BOUNDARY (408) RIVER STAGE (   23.6355) IS LESS THAN RIVER BOTTOM
        (   23.6875)
   409. RIV BOUNDARY (409) RIVER STAGE (   23.6268) IS LESS THAN RIVER BOTTOM
        (   23.6788)
   410. RIV BOUNDARY (410) RIVER STAGE (   23.6206) IS LESS THAN RIVER BOTTOM
        (   23.6726)
   411. RIV BOUNDARY (411) RIVER STAGE (   23.6145) IS LESS THAN RIVER BOTTOM
        (   23.6665)
   412. RIV BOUNDARY (412) RIVER STAGE (   23.6083) IS LESS THAN RIVER BOTTOM
        (   23.6603)
   413. RIV BOUNDARY (413) RIVER STAGE (   23.6022) IS LESS THAN RIVER BOTTOM
        (   23.6542)
   414. RIV BOUNDARY (414) RIVER STAGE (   23.5961) IS LESS THAN RIVER BOTTOM
        (   23.6481)
   415. RIV BOUNDARY (415) RIVER STAGE (   23.5899) IS LESS THAN RIVER BOTTOM
        (   23.6419)
   416. RIV BOUNDARY (416) RIVER STAGE (   23.5838) IS LESS THAN RIVER BOTTOM
        (   23.6358)
   417. RIV BOUNDARY (417) RIVER STAGE (   23.5776) IS LESS THAN RIVER BOTTOM
        (   23.6296)
   418. RIV BOUNDARY (418) RIVER STAGE (   23.5689) IS LESS THAN RIVER BOTTOM
        (   23.6209)
   419. RIV BOUNDARY (419) RIVER STAGE (   23.5628) IS LESS THAN RIVER BOTTOM
        (   23.6148)
   420. RIV BOUNDARY (420) RIVER STAGE (   23.5541) IS LESS THAN RIVER BOTTOM
        (   23.6061)
   421. RIV BOUNDARY (421) RIVER STAGE (   23.5480) IS LESS THAN RIVER BOTTOM
        (   23.6000)
   422. RIV BOUNDARY (422) RIVER STAGE (   23.5418) IS LESS THAN RIVER BOTTOM
        (   23.5938)
   423. RIV BOUNDARY (423) RIVER STAGE (   23.5357) IS LESS THAN RIVER BOTTOM
        (   23.5877)
   424. RIV BOUNDARY (424) RIVER STAGE (   23.5295) IS LESS THAN RIVER BOTTOM
        (   23.5815)
   425. RIV BOUNDARY (425) RIVER STAGE (   23.5234) IS LESS THAN RIVER BOTTOM
        (   23.5754)
   426. RIV BOUNDARY (426) RIVER STAGE (   23.5173) IS LESS THAN RIVER BOTTOM
        (   23.5693)
   427. RIV BOUNDARY (427) RIVER STAGE (   23.5111) IS LESS THAN RIVER BOTTOM
        (   23.5631)
   428. RIV BOUNDARY (428) RIVER STAGE (   23.5024) IS LESS THAN RIVER BOTTOM
        (   23.5544)
   429. RIV BOUNDARY (429) RIVER STAGE (   23.4963) IS LESS THAN RIVER BOTTOM
        (   23.5483)
   430. RIV BOUNDARY (430) RIVER STAGE (   23.4876) IS LESS THAN RIVER BOTTOM
        (   23.5396)
   431. RIV BOUNDARY (431) RIVER STAGE (   23.4815) IS LESS THAN RIVER BOTTOM
        (   23.5335)
   432. RIV BOUNDARY (432) RIVER STAGE (   23.4753) IS LESS THAN RIVER BOTTOM
        (   23.5273)
   433. RIV BOUNDARY (433) RIVER STAGE (   23.4692) IS LESS THAN RIVER BOTTOM
        (   23.5212)
   434. RIV BOUNDARY (434) RIVER STAGE (   23.4630) IS LESS THAN RIVER BOTTOM
        (   23.5150)
   435. RIV BOUNDARY (435) RIVER STAGE (   23.4569) IS LESS THAN RIVER BOTTOM
        (   23.5089)
   436. RIV BOUNDARY (436) RIVER STAGE (   23.4508) IS LESS THAN RIVER BOTTOM
        (   23.5028)
   437. RIV BOUNDARY (437) RIVER STAGE (   23.4446) IS LESS THAN RIVER BOTTOM
        (   23.4966)
   438. RIV BOUNDARY (438) RIVER STAGE (   23.4359) IS LESS THAN RIVER BOTTOM
        (   23.4879)
   439. RIV BOUNDARY (439) RIVER STAGE (   23.4298) IS LESS THAN RIVER BOTTOM
        (   23.4818)
   440. RIV BOUNDARY (440) RIVER STAGE (   23.4211) IS LESS THAN RIVER BOTTOM
        (   23.4731)
   441. RIV BOUNDARY (441) RIVER STAGE (   23.4150) IS LESS THAN RIVER BOTTOM
        (   23.4670)
   442. RIV BOUNDARY (442) RIVER STAGE (   23.4088) IS LESS THAN RIVER BOTTOM
        (   23.4608)
   443. RIV BOUNDARY (443) RIVER STAGE (   23.4027) IS LESS THAN RIVER BOTTOM
        (   23.4547)
   444. RIV BOUNDARY (444) RIVER STAGE (   23.3965) IS LESS THAN RIVER BOTTOM
        (   23.4485)
   445. RIV BOUNDARY (445) RIVER STAGE (   23.3904) IS LESS THAN RIVER BOTTOM
        (   23.4424)
   446. RIV BOUNDARY (446) RIVER STAGE (   23.3817) IS LESS THAN RIVER BOTTOM
        (   23.4337)
   447. RIV BOUNDARY (447) RIVER STAGE (   23.3756) IS LESS THAN RIVER BOTTOM
        (   23.4276)
   448. RIV BOUNDARY (448) RIVER STAGE (   23.3618) IS LESS THAN RIVER BOTTOM
        (   23.4138)
   449. RIV BOUNDARY (449) RIVER STAGE (   23.3557) IS LESS THAN RIVER BOTTOM
        (   23.4077)
   450. RIV BOUNDARY (450) RIVER STAGE (   23.3470) IS LESS THAN RIVER BOTTOM
        (   23.3990)
   451. RIV BOUNDARY (451) RIVER STAGE (   23.3408) IS LESS THAN RIVER BOTTOM
        (   23.3928)
   452. RIV BOUNDARY (452) RIVER STAGE (   23.3347) IS LESS THAN RIVER BOTTOM
        (   23.3867)
   453. RIV BOUNDARY (453) RIVER STAGE (   23.3286) IS LESS THAN RIVER BOTTOM
        (   23.3806)
   454. RIV BOUNDARY (454) RIVER STAGE (   23.3224) IS LESS THAN RIVER BOTTOM
        (   23.3744)
   455. RIV BOUNDARY (455) RIVER STAGE (   23.3163) IS LESS THAN RIVER BOTTOM
        (   23.3683)
   456. RIV BOUNDARY (456) RIVER STAGE (   23.3076) IS LESS THAN RIVER BOTTOM
        (   23.3596)
   457. RIV BOUNDARY (457) RIVER STAGE (   23.3015) IS LESS THAN RIVER BOTTOM
        (   23.3535)
   458. RIV BOUNDARY (458) RIVER STAGE (   23.2877) IS LESS THAN RIVER BOTTOM
        (   23.3397)
   459. RIV BOUNDARY (459) RIVER STAGE (   23.2816) IS LESS THAN RIVER BOTTOM
        (   23.3336)
   460. RIV BOUNDARY (460) RIVER STAGE (   23.2729) IS LESS THAN RIVER BOTTOM
        (   23.3249)
   461. RIV BOUNDARY (461) RIVER STAGE (   23.2667) IS LESS THAN RIVER BOTTOM
        (   23.3187)
   462. RIV BOUNDARY (462) RIVER STAGE (   23.2606) IS LESS THAN RIVER BOTTOM
        (   23.3126)
   463. RIV BOUNDARY (463) RIVER STAGE (   23.2545) IS LESS THAN RIVER BOTTOM
        (   23.3065)
   464. RIV BOUNDARY (464) RIVER STAGE (   23.2483) IS LESS THAN RIVER BOTTOM
        (   23.3003)
   465. RIV BOUNDARY (465) RIVER STAGE (   23.2422) IS LESS THAN RIVER BOTTOM
        (   23.2942)
   466. RIV BOUNDARY (466) RIVER STAGE (   23.2360) IS LESS THAN RIVER BOTTOM
        (   23.2880)
   467. RIV BOUNDARY (467) RIVER STAGE (   23.2299) IS LESS THAN RIVER BOTTOM
        (   23.2819)
   468. RIV BOUNDARY (468) RIVER STAGE (   23.2238) IS LESS THAN RIVER BOTTOM
        (   23.2758)
   469. RIV BOUNDARY (469) RIVER STAGE (   23.2176) IS LESS THAN RIVER BOTTOM
        (   23.2696)
   470. RIV BOUNDARY (470) RIVER STAGE (   23.2115) IS LESS THAN RIVER BOTTOM
        (   23.2635)
   471. RIV BOUNDARY (471) RIVER STAGE (   23.2053) IS LESS THAN RIVER BOTTOM
        (   23.2573)
   472. RIV BOUNDARY (472) RIVER STAGE (   23.1966) IS LESS THAN RIVER BOTTOM
        (   23.2486)
   473. RIV BOUNDARY (473) RIVER STAGE (   23.1905) IS LESS THAN RIVER BOTTOM
        (   23.2425)
   474. RIV BOUNDARY (474) RIVER STAGE (   23.1818) IS LESS THAN RIVER BOTTOM
        (   23.2338)
   475. RIV BOUNDARY (475) RIVER STAGE (   23.1757) IS LESS THAN RIVER BOTTOM
        (   23.2277)
   476. RIV BOUNDARY (476) RIVER STAGE (   23.1695) IS LESS THAN RIVER BOTTOM
        (   23.2215)
   477. RIV BOUNDARY (477) RIVER STAGE (   23.1634) IS LESS THAN RIVER BOTTOM
        (   23.2154)
   478. RIV BOUNDARY (478) RIVER STAGE (   23.1572) IS LESS THAN RIVER BOTTOM
        (   23.2092)
   479. RIV BOUNDARY (479) RIVER STAGE (   23.1511) IS LESS THAN RIVER BOTTOM
        (   23.2031)
   480. RIV BOUNDARY (480) RIVER STAGE (   23.1450) IS LESS THAN RIVER BOTTOM
        (   23.1970)
   481. RIV BOUNDARY (481) RIVER STAGE (   23.1388) IS LESS THAN RIVER BOTTOM
        (   23.1908)
   482. RIV BOUNDARY (482) RIVER STAGE (   23.1327) IS LESS THAN RIVER BOTTOM
        (   23.1847)
   483. RIV BOUNDARY (483) RIVER STAGE (   23.1265) IS LESS THAN RIVER BOTTOM
        (   23.1785)
   484. RIV BOUNDARY (484) RIVER STAGE (   23.1204) IS LESS THAN RIVER BOTTOM
        (   23.1724)
   485. RIV BOUNDARY (485) RIVER STAGE (   23.1117) IS LESS THAN RIVER BOTTOM
        (   23.1637)
   486. RIV BOUNDARY (486) RIVER STAGE (   23.1056) IS LESS THAN RIVER BOTTOM
        (   23.1576)
   487. RIV BOUNDARY (487) RIVER STAGE (   23.0918) IS LESS THAN RIVER BOTTOM
        (   23.1438)
   488. RIV BOUNDARY (488) RIVER STAGE (   23.0857) IS LESS THAN RIVER BOTTOM
        (   23.1377)
   489. RIV BOUNDARY (489) RIVER STAGE (   23.0770) IS LESS THAN RIVER BOTTOM
        (   23.1290)
   490. RIV BOUNDARY (490) RIVER STAGE (   23.0709) IS LESS THAN RIVER BOTTOM
        (   23.1229)
   491. RIV BOUNDARY (491) RIVER STAGE (   23.0647) IS LESS THAN RIVER BOTTOM
        (   23.1167)
   492. RIV BOUNDARY (492) RIVER STAGE (   23.0586) IS LESS THAN RIVER BOTTOM
        (   23.1106)
   493. RIV BOUNDARY (493) RIVER STAGE (   23.0524) IS LESS THAN RIVER BOTTOM
        (   23.1044)
   494. RIV BOUNDARY (494) RIVER STAGE (   23.0463) IS LESS THAN RIVER BOTTOM
        (   23.0983)
   495. RIV BOUNDARY (495) RIVER STAGE (   23.0401) IS LESS THAN RIVER BOTTOM
        (   23.0921)
   496. RIV BOUNDARY (496) RIVER STAGE (   23.0340) IS LESS THAN RIVER BOTTOM
        (   23.0860)
   497. RIV BOUNDARY (497) RIVER STAGE (   23.0279) IS LESS THAN RIVER BOTTOM
        (   23.0799)
   498. RIV BOUNDARY (498) RIVER STAGE (   23.0217) IS LESS THAN RIVER BOTTOM
        (   23.0737)
   499. RIV BOUNDARY (499) RIVER STAGE (   23.0156) IS LESS THAN RIVER BOTTOM
        (   23.0676)
   500. RIV BOUNDARY (500) RIVER STAGE (   23.0094) IS LESS THAN RIVER BOTTOM
        (   23.0614)
   501. RIV BOUNDARY (501) RIVER STAGE (   23.0033) IS LESS THAN RIVER BOTTOM
        (   23.0553)
   502. RIV BOUNDARY (502) RIVER STAGE (   22.9946) IS LESS THAN RIVER BOTTOM
        (   23.0466)
   503. RIV BOUNDARY (503) RIVER STAGE (   22.9885) IS LESS THAN RIVER BOTTOM
        (   23.0405)
   504. RIV BOUNDARY (504) RIVER STAGE (   22.9798) IS LESS THAN RIVER BOTTOM
        (   23.0318)
   505. RIV BOUNDARY (505) RIVER STAGE (   22.9736) IS LESS THAN RIVER BOTTOM
        (   23.0256)
   506. RIV BOUNDARY (506) RIVER STAGE (   22.9675) IS LESS THAN RIVER BOTTOM
        (   23.0195)
   507. RIV BOUNDARY (507) RIVER STAGE (   22.9613) IS LESS THAN RIVER BOTTOM
        (   23.0133)
   508. RIV BOUNDARY (508) RIVER STAGE (   22.9552) IS LESS THAN RIVER BOTTOM
        (   23.0072)
   509. RIV BOUNDARY (509) RIVER STAGE (   22.9491) IS LESS THAN RIVER BOTTOM
        (   23.0011)
   510. RIV BOUNDARY (510) RIVER STAGE (   22.9429) IS LESS THAN RIVER BOTTOM
        (   22.9949)
   511. RIV BOUNDARY (511) RIVER STAGE (   22.9368) IS LESS THAN RIVER BOTTOM
        (   22.9888)
   512. RIV BOUNDARY (512) RIVER STAGE (   22.9306) IS LESS THAN RIVER BOTTOM
        (   22.9826)
   513. RIV BOUNDARY (513) RIVER STAGE (   22.9245) IS LESS THAN RIVER BOTTOM
        (   22.9765)
   514. RIV BOUNDARY (514) RIVER STAGE (   22.9183) IS LESS THAN RIVER BOTTOM
        (   22.9703)
   515. RIV BOUNDARY (515) RIVER STAGE (   22.9097) IS LESS THAN RIVER BOTTOM
        (   22.9617)
   516. RIV BOUNDARY (516) RIVER STAGE (   22.9035) IS LESS THAN RIVER BOTTOM
        (   22.9555)
   517. RIV BOUNDARY (517) RIVER STAGE (   22.8948) IS LESS THAN RIVER BOTTOM
        (   22.9468)
   518. RIV BOUNDARY (518) RIVER STAGE (   22.8887) IS LESS THAN RIVER BOTTOM
        (   22.9407)
   519. RIV BOUNDARY (519) RIVER STAGE (   22.8825) IS LESS THAN RIVER BOTTOM
        (   22.9345)
   520. RIV BOUNDARY (520) RIVER STAGE (   22.8764) IS LESS THAN RIVER BOTTOM
        (   22.9284)
   521. RIV BOUNDARY (521) RIVER STAGE (   22.8703) IS LESS THAN RIVER BOTTOM
        (   22.9223)
   522. RIV BOUNDARY (522) RIVER STAGE (   22.8641) IS LESS THAN RIVER BOTTOM
        (   22.9161)
   523. RIV BOUNDARY (523) RIVER STAGE (   22.8580) IS LESS THAN RIVER BOTTOM
        (   22.9100)
   524. RIV BOUNDARY (524) RIVER STAGE (   22.8518) IS LESS THAN RIVER BOTTOM
        (   22.9038)
   525. RIV BOUNDARY (525) RIVER STAGE (   22.8457) IS LESS THAN RIVER BOTTOM
        (   22.8977)
   526. RIV BOUNDARY (526) RIVER STAGE (   22.8396) IS LESS THAN RIVER BOTTOM
        (   22.8916)
   527. RIV BOUNDARY (527) RIVER STAGE (   22.8334) IS LESS THAN RIVER BOTTOM
        (   22.8854)
   528. RIV BOUNDARY (528) RIVER STAGE (   22.8273) IS LESS THAN RIVER BOTTOM
        (   22.8793)
   529. RIV BOUNDARY (529) RIVER STAGE (   22.8211) IS LESS THAN RIVER BOTTOM
        (   22.8731)
   530. RIV BOUNDARY (530) RIVER STAGE (   22.8124) IS LESS THAN RIVER BOTTOM
        (   22.8644)
   531. RIV BOUNDARY (531) RIVER STAGE (   22.8063) IS LESS THAN RIVER BOTTOM
        (   22.8583)
   532. RIV BOUNDARY (532) RIVER STAGE (   22.7976) IS LESS THAN RIVER BOTTOM
        (   22.8496)
   533. RIV BOUNDARY (533) RIVER STAGE (   22.7915) IS LESS THAN RIVER BOTTOM
        (   22.8435)
   534. RIV BOUNDARY (534) RIVER STAGE (   22.7853) IS LESS THAN RIVER BOTTOM
        (   22.8373)
   535. RIV BOUNDARY (535) RIVER STAGE (   22.7792) IS LESS THAN RIVER BOTTOM
        (   22.8312)
   536. RIV BOUNDARY (536) RIVER STAGE (   22.7730) IS LESS THAN RIVER BOTTOM
        (   22.8250)
   537. RIV BOUNDARY (537) RIVER STAGE (   22.7669) IS LESS THAN RIVER BOTTOM
        (   22.8189)
   538. RIV BOUNDARY (538) RIVER STAGE (   22.7608) IS LESS THAN RIVER BOTTOM
        (   22.8128)
   539. RIV BOUNDARY (539) RIVER STAGE (   22.7546) IS LESS THAN RIVER BOTTOM
        (   22.8066)
   540. RIV BOUNDARY (540) RIVER STAGE (   22.7485) IS LESS THAN RIVER BOTTOM
        (   22.8005)
   541. RIV BOUNDARY (541) RIVER STAGE (   22.7423) IS LESS THAN RIVER BOTTOM
        (   22.7943)
   542. RIV BOUNDARY (542) RIVER STAGE (   22.7362) IS LESS THAN RIVER BOTTOM
        (   22.7882)
   543. RIV BOUNDARY (543) RIVER STAGE (   22.7300) IS LESS THAN RIVER BOTTOM
        (   22.7820)
   544. RIV BOUNDARY (544) RIVER STAGE (   22.7214) IS LESS THAN RIVER BOTTOM
        (   22.7734)
   545. RIV BOUNDARY (545) RIVER STAGE (   22.7152) IS LESS THAN RIVER BOTTOM
        (   22.7672)
   546. RIV BOUNDARY (546) RIVER STAGE (   22.7065) IS LESS THAN RIVER BOTTOM
        (   22.7585)
   547. RIV BOUNDARY (547) RIVER STAGE (   22.7004) IS LESS THAN RIVER BOTTOM
        (   22.7524)
   548. RIV BOUNDARY (548) RIVER STAGE (   22.6942) IS LESS THAN RIVER BOTTOM
        (   22.7462)
   549. RIV BOUNDARY (549) RIVER STAGE (   22.6881) IS LESS THAN RIVER BOTTOM
        (   22.7401)
   550. RIV BOUNDARY (550) RIVER STAGE (   22.6820) IS LESS THAN RIVER BOTTOM
        (   22.7340)
   551. RIV BOUNDARY (551) RIVER STAGE (   22.6758) IS LESS THAN RIVER BOTTOM
        (   22.7278)
   552. RIV BOUNDARY (552) RIVER STAGE (   22.6697) IS LESS THAN RIVER BOTTOM
        (   22.7217)
   553. RIV BOUNDARY (553) RIVER STAGE (   22.6635) IS LESS THAN RIVER BOTTOM
        (   22.7155)
   554. RIV BOUNDARY (554) RIVER STAGE (   22.6574) IS LESS THAN RIVER BOTTOM
        (   22.7094)
   555. RIV BOUNDARY (555) RIVER STAGE (   22.6513) IS LESS THAN RIVER BOTTOM
        (   22.7033)
   556. RIV BOUNDARY (556) RIVER STAGE (   22.6451) IS LESS THAN RIVER BOTTOM
        (   22.6971)
   557. RIV BOUNDARY (557) RIVER STAGE (   22.6390) IS LESS THAN RIVER BOTTOM
        (   22.6910)
   558. RIV BOUNDARY (558) RIVER STAGE (   22.6303) IS LESS THAN RIVER BOTTOM
        (   22.6823)
   559. RIV BOUNDARY (559) RIVER STAGE (   22.6241) IS LESS THAN RIVER BOTTOM
        (   22.6761)
   560. RIV BOUNDARY (560) RIVER STAGE (   22.6155) IS LESS THAN RIVER BOTTOM
        (   22.6675)
   561. RIV BOUNDARY (561) RIVER STAGE (   22.6093) IS LESS THAN RIVER BOTTOM
        (   22.6613)
   562. RIV BOUNDARY (562) RIVER STAGE (   22.6032) IS LESS THAN RIVER BOTTOM
        (   22.6552)
   563. RIV BOUNDARY (563) RIVER STAGE (   22.5970) IS LESS THAN RIVER BOTTOM
        (   22.6490)
   564. RIV BOUNDARY (564) RIVER STAGE (   22.5909) IS LESS THAN RIVER BOTTOM
        (   22.6429)
   565. RIV BOUNDARY (565) RIVER STAGE (   22.5847) IS LESS THAN RIVER BOTTOM
        (   22.6367)
   566. RIV BOUNDARY (566) RIVER STAGE (   22.5786) IS LESS THAN RIVER BOTTOM
        (   22.6306)
   567. RIV BOUNDARY (567) RIVER STAGE (   22.5725) IS LESS THAN RIVER BOTTOM
        (   22.6245)
   568. RIV BOUNDARY (568) RIVER STAGE (   22.5663) IS LESS THAN RIVER BOTTOM
        (   22.6183)
   569. RIV BOUNDARY (569) RIVER STAGE (   22.5602) IS LESS THAN RIVER BOTTOM
        (   22.6122)
   570. RIV BOUNDARY (570) RIVER STAGE (   22.5540) IS LESS THAN RIVER BOTTOM
        (   22.6060)
   571. RIV BOUNDARY (571) RIVER STAGE (   22.5479) IS LESS THAN RIVER BOTTOM
        (   22.5999)
   572. RIV BOUNDARY (572) RIVER STAGE (   22.5392) IS LESS THAN RIVER BOTTOM
        (   22.5912)
   573. RIV BOUNDARY (573) RIVER STAGE (   22.5331) IS LESS THAN RIVER BOTTOM
        (   22.5851)
   574. RIV BOUNDARY (574) RIVER STAGE (   22.5244) IS LESS THAN RIVER BOTTOM
        (   22.5764)
   575. RIV BOUNDARY (575) RIVER STAGE (   22.5182) IS LESS THAN RIVER BOTTOM
        (   22.5702)
   576. RIV BOUNDARY (576) RIVER STAGE (   22.5121) IS LESS THAN RIVER BOTTOM
        (   22.5641)
   577. RIV BOUNDARY (577) RIVER STAGE (   22.5059) IS LESS THAN RIVER BOTTOM
        (   22.5579)
   578. RIV BOUNDARY (578) RIVER STAGE (   22.4998) IS LESS THAN RIVER BOTTOM
        (   22.5518)
   579. RIV BOUNDARY (579) RIVER STAGE (   22.4937) IS LESS THAN RIVER BOTTOM
        (   22.5457)
   580. RIV BOUNDARY (580) RIVER STAGE (   22.4875) IS LESS THAN RIVER BOTTOM
        (   22.5395)
   581. RIV BOUNDARY (581) RIVER STAGE (   22.4814) IS LESS THAN RIVER BOTTOM
        (   22.5334)
   582. RIV BOUNDARY (582) RIVER STAGE (   22.4752) IS LESS THAN RIVER BOTTOM
        (   22.5272)
   583. RIV BOUNDARY (583) RIVER STAGE (   22.4691) IS LESS THAN RIVER BOTTOM
        (   22.5211)
   584. RIV BOUNDARY (584) RIVER STAGE (   22.4629) IS LESS THAN RIVER BOTTOM
        (   22.5149)
   585. RIV BOUNDARY (585) RIVER STAGE (   22.4543) IS LESS THAN RIVER BOTTOM
        (   22.5063)
   586. RIV BOUNDARY (586) RIVER STAGE (   22.4481) IS LESS THAN RIVER BOTTOM
        (   22.5001)
   587. RIV BOUNDARY (587) RIVER STAGE (   22.4394) IS LESS THAN RIVER BOTTOM
        (   22.4914)
   588. RIV BOUNDARY (588) RIVER STAGE (   22.4333) IS LESS THAN RIVER BOTTOM
        (   22.4853)
   589. RIV BOUNDARY (589) RIVER STAGE (   22.4271) IS LESS THAN RIVER BOTTOM
        (   22.4791)
   590. RIV BOUNDARY (590) RIVER STAGE (   22.4210) IS LESS THAN RIVER BOTTOM
        (   22.4730)
   591. RIV BOUNDARY (591) RIVER STAGE (   22.4149) IS LESS THAN RIVER BOTTOM
        (   22.4669)
   592. RIV BOUNDARY (592) RIVER STAGE (   22.4087) IS LESS THAN RIVER BOTTOM
        (   22.4607)
   593. RIV BOUNDARY (593) RIVER STAGE (   22.4026) IS LESS THAN RIVER BOTTOM
        (   22.4546)
   594. RIV BOUNDARY (594) RIVER STAGE (   22.3964) IS LESS THAN RIVER BOTTOM
        (   22.4484)
   595. RIV BOUNDARY (595) RIVER STAGE (   22.3903) IS LESS THAN RIVER BOTTOM
        (   22.4423)
   596. RIV BOUNDARY (596) RIVER STAGE (   22.3842) IS LESS THAN RIVER BOTTOM
        (   22.4362)
   597. RIV BOUNDARY (597) RIVER STAGE (   22.3780) IS LESS THAN RIVER BOTTOM
        (   22.4300)
   598. RIV BOUNDARY (598) RIVER STAGE (   22.3719) IS LESS THAN RIVER BOTTOM
        (   22.4239)
   599. RIV BOUNDARY (599) RIVER STAGE (   22.3657) IS LESS THAN RIVER BOTTOM
        (   22.4177)
   600. RIV BOUNDARY (600) RIVER STAGE (   22.3596) IS LESS THAN RIVER BOTTOM
        (   22.4116)
   601. RIV BOUNDARY (601) RIVER STAGE (   22.3534) IS LESS THAN RIVER BOTTOM
        (   22.4054)
   602. RIV BOUNDARY (602) RIVER STAGE (   22.3473) IS LESS THAN RIVER BOTTOM
        (   22.3993)
   603. RIV BOUNDARY (603) RIVER STAGE (   22.3412) IS LESS THAN RIVER BOTTOM
        (   22.3932)
   604. RIV BOUNDARY (604) RIVER STAGE (   22.3350) IS LESS THAN RIVER BOTTOM
        (   22.3870)
   605. RIV BOUNDARY (605) RIVER STAGE (   22.3289) IS LESS THAN RIVER BOTTOM
        (   22.3809)
   606. RIV BOUNDARY (606) RIVER STAGE (   22.3227) IS LESS THAN RIVER BOTTOM
        (   22.3747)
   607. RIV BOUNDARY (607) RIVER STAGE (   22.3166) IS LESS THAN RIVER BOTTOM
        (   22.3686)
   608. RIV BOUNDARY (608) RIVER STAGE (   22.3104) IS LESS THAN RIVER BOTTOM
        (   22.3624)
   609. RIV BOUNDARY (609) RIVER STAGE (   22.3043) IS LESS THAN RIVER BOTTOM
        (   22.3563)
   610. RIV BOUNDARY (610) RIVER STAGE (   22.2982) IS LESS THAN RIVER BOTTOM
        (   22.3502)
   611. RIV BOUNDARY (611) RIVER STAGE (   22.2920) IS LESS THAN RIVER BOTTOM
        (   22.3440)
   612. RIV BOUNDARY (612) RIVER STAGE (   22.2859) IS LESS THAN RIVER BOTTOM
        (   22.3379)
   613. RIV BOUNDARY (613) RIVER STAGE (   22.2772) IS LESS THAN RIVER BOTTOM
        (   22.3292)
   614. RIV BOUNDARY (614) RIVER STAGE (   22.2710) IS LESS THAN RIVER BOTTOM
        (   22.3230)
   615. RIV BOUNDARY (615) RIVER STAGE (   22.2624) IS LESS THAN RIVER BOTTOM
        (   22.3144)
   616. RIV BOUNDARY (616) RIVER STAGE (   22.2562) IS LESS THAN RIVER BOTTOM
        (   22.3082)
   617. RIV BOUNDARY (617) RIVER STAGE (   22.2501) IS LESS THAN RIVER BOTTOM
        (   22.3021)
   618. RIV BOUNDARY (618) RIVER STAGE (   22.2439) IS LESS THAN RIVER BOTTOM
        (   22.2959)
   619. RIV BOUNDARY (619) RIVER STAGE (   22.2378) IS LESS THAN RIVER BOTTOM
        (   22.2898)
   620. RIV BOUNDARY (620) RIVER STAGE (   22.2316) IS LESS THAN RIVER BOTTOM
        (   22.2836)
   621. RIV BOUNDARY (621) RIVER STAGE (   22.2255) IS LESS THAN RIVER BOTTOM
        (   22.2775)
   622. RIV BOUNDARY (622) RIVER STAGE (   22.2194) IS LESS THAN RIVER BOTTOM
        (   22.2714)
   623. RIV BOUNDARY (623) RIVER STAGE (   22.2132) IS LESS THAN RIVER BOTTOM
        (   22.2652)
   624. RIV BOUNDARY (624) RIVER STAGE (   22.2071) IS LESS THAN RIVER BOTTOM
        (   22.2591)
   625. RIV BOUNDARY (625) RIVER STAGE (   22.2009) IS LESS THAN RIVER BOTTOM
        (   22.2529)
   626. RIV BOUNDARY (626) RIVER STAGE (   22.1948) IS LESS THAN RIVER BOTTOM
        (   22.2468)
   627. RIV BOUNDARY (627) RIVER STAGE (   22.1887) IS LESS THAN RIVER BOTTOM
        (   22.2407)
   628. RIV BOUNDARY (628) RIVER STAGE (   22.1800) IS LESS THAN RIVER BOTTOM
        (   22.2320)
   629. RIV BOUNDARY (629) RIVER STAGE (   22.1738) IS LESS THAN RIVER BOTTOM
        (   22.2258)
   630. RIV BOUNDARY (630) RIVER STAGE (   22.1651) IS LESS THAN RIVER BOTTOM
        (   22.2171)
   631. RIV BOUNDARY (631) RIVER STAGE (   22.1590) IS LESS THAN RIVER BOTTOM
        (   22.2110)
   632. RIV BOUNDARY (632) RIVER STAGE (   22.1529) IS LESS THAN RIVER BOTTOM
        (   22.2049)
   633. RIV BOUNDARY (633) RIVER STAGE (   22.1467) IS LESS THAN RIVER BOTTOM
        (   22.1987)
   634. RIV BOUNDARY (634) RIVER STAGE (   22.1406) IS LESS THAN RIVER BOTTOM
        (   22.1926)
   635. RIV BOUNDARY (635) RIVER STAGE (   22.1344) IS LESS THAN RIVER BOTTOM
        (   22.1864)
   636. RIV BOUNDARY (636) RIVER STAGE (   22.1283) IS LESS THAN RIVER BOTTOM
        (   22.1803)
   637. RIV BOUNDARY (637) RIVER STAGE (   22.1221) IS LESS THAN RIVER BOTTOM
        (   22.1741)
   638. RIV BOUNDARY (638) RIVER STAGE (   22.1160) IS LESS THAN RIVER BOTTOM
        (   22.1680)
   639. RIV BOUNDARY (639) RIVER STAGE (   22.1099) IS LESS THAN RIVER BOTTOM
        (   22.1619)
   640. RIV BOUNDARY (640) RIVER STAGE (   22.1037) IS LESS THAN RIVER BOTTOM
        (   22.1557)
   641. RIV BOUNDARY (641) RIVER STAGE (   22.0976) IS LESS THAN RIVER BOTTOM
        (   22.1496)
   642. RIV BOUNDARY (642) RIVER STAGE (   22.0889) IS LESS THAN RIVER BOTTOM
        (   22.1409)
   643. RIV BOUNDARY (643) RIVER STAGE (   22.0827) IS LESS THAN RIVER BOTTOM
        (   22.1347)
   644. RIV BOUNDARY (644) RIVER STAGE (   22.0741) IS LESS THAN RIVER BOTTOM
        (   22.1261)
   645. RIV BOUNDARY (645) RIVER STAGE (   22.0679) IS LESS THAN RIVER BOTTOM
        (   22.1199)
   646. RIV BOUNDARY (646) RIVER STAGE (   22.0618) IS LESS THAN RIVER BOTTOM
        (   22.1138)
   647. RIV BOUNDARY (647) RIVER STAGE (   22.0556) IS LESS THAN RIVER BOTTOM
        (   22.1076)
   648. RIV BOUNDARY (648) RIVER STAGE (   22.0495) IS LESS THAN RIVER BOTTOM
        (   22.1015)
   649. RIV BOUNDARY (649) RIVER STAGE (   22.0433) IS LESS THAN RIVER BOTTOM
        (   22.0953)
   650. RIV BOUNDARY (650) RIVER STAGE (   22.0372) IS LESS THAN RIVER BOTTOM
        (   22.0892)
   651. RIV BOUNDARY (651) RIVER STAGE (   22.0311) IS LESS THAN RIVER BOTTOM
        (   22.0831)
   652. RIV BOUNDARY (652) RIVER STAGE (   22.0249) IS LESS THAN RIVER BOTTOM
        (   22.0769)
   653. RIV BOUNDARY (653) RIVER STAGE (   22.0188) IS LESS THAN RIVER BOTTOM
        (   22.0708)
   654. RIV BOUNDARY (654) RIVER STAGE (   22.0101) IS LESS THAN RIVER BOTTOM
        (   22.0621)
   655. RIV BOUNDARY (655) RIVER STAGE (   22.0039) IS LESS THAN RIVER BOTTOM
        (   22.0559)
   656. RIV BOUNDARY (656) RIVER STAGE (   21.9953) IS LESS THAN RIVER BOTTOM
        (   22.0473)
   657. RIV BOUNDARY (657) RIVER STAGE (   21.9891) IS LESS THAN RIVER BOTTOM
        (   22.0411)
   658. RIV BOUNDARY (658) RIVER STAGE (   21.9830) IS LESS THAN RIVER BOTTOM
        (   22.0350)
   659. RIV BOUNDARY (659) RIVER STAGE (   21.9768) IS LESS THAN RIVER BOTTOM
        (   22.0288)
   660. RIV BOUNDARY (660) RIVER STAGE (   21.9707) IS LESS THAN RIVER BOTTOM
        (   22.0227)
   661. RIV BOUNDARY (661) RIVER STAGE (   21.9646) IS LESS THAN RIVER BOTTOM
        (   22.0166)
   662. RIV BOUNDARY (662) RIVER STAGE (   21.9584) IS LESS THAN RIVER BOTTOM
        (   22.0104)
   663. RIV BOUNDARY (663) RIVER STAGE (   21.9523) IS LESS THAN RIVER BOTTOM
        (   22.0043)
   664. RIV BOUNDARY (664) RIVER STAGE (   21.9461) IS LESS THAN RIVER BOTTOM
        (   21.9981)
   665. RIV BOUNDARY (665) RIVER STAGE (   21.9400) IS LESS THAN RIVER BOTTOM
        (   21.9920)
   666. RIV BOUNDARY (666) RIVER STAGE (   21.9338) IS LESS THAN RIVER BOTTOM
        (   21.9858)
   667. RIV BOUNDARY (667) RIVER STAGE (   21.9277) IS LESS THAN RIVER BOTTOM
        (   21.9797)
   668. RIV BOUNDARY (668) RIVER STAGE (   21.9216) IS LESS THAN RIVER BOTTOM
        (   21.9736)
   669. RIV BOUNDARY (669) RIVER STAGE (   21.9154) IS LESS THAN RIVER BOTTOM
        (   21.9674)
   670. RIV BOUNDARY (670) RIVER STAGE (   21.9093) IS LESS THAN RIVER BOTTOM
        (   21.9613)
   671. RIV BOUNDARY (671) RIVER STAGE (   21.9031) IS LESS THAN RIVER BOTTOM
        (   21.9551)
   672. RIV BOUNDARY (672) RIVER STAGE (   21.8970) IS LESS THAN RIVER BOTTOM
        (   21.9490)
   673. RIV BOUNDARY (673) RIVER STAGE (   21.8908) IS LESS THAN RIVER BOTTOM
        (   21.9428)
   674. RIV BOUNDARY (674) RIVER STAGE (   21.8847) IS LESS THAN RIVER BOTTOM
        (   21.9367)
   675. RIV BOUNDARY (675) RIVER STAGE (   21.8786) IS LESS THAN RIVER BOTTOM
        (   21.9306)
   676. RIV BOUNDARY (676) RIVER STAGE (   21.8724) IS LESS THAN RIVER BOTTOM
        (   21.9244)
   677. RIV BOUNDARY (677) RIVER STAGE (   21.8663) IS LESS THAN RIVER BOTTOM
        (   21.9183)
   678. RIV BOUNDARY (678) RIVER STAGE (   21.8601) IS LESS THAN RIVER BOTTOM
        (   21.9121)
   679. RIV BOUNDARY (679) RIVER STAGE (   21.8540) IS LESS THAN RIVER BOTTOM
        (   21.9060)
   680. RIV BOUNDARY (680) RIVER STAGE (   21.8478) IS LESS THAN RIVER BOTTOM
        (   21.8998)
   681. RIV BOUNDARY (681) RIVER STAGE (   21.8417) IS LESS THAN RIVER BOTTOM
        (   21.8937)
   682. RIV BOUNDARY (682) RIVER STAGE (   21.8356) IS LESS THAN RIVER BOTTOM
        (   21.8876)
   683. RIV BOUNDARY (683) RIVER STAGE (   21.8294) IS LESS THAN RIVER BOTTOM
        (   21.8814)
   684. RIV BOUNDARY (684) RIVER STAGE (   21.8233) IS LESS THAN RIVER BOTTOM
        (   21.8753)
   685. RIV BOUNDARY (685) RIVER STAGE (   21.8171) IS LESS THAN RIVER BOTTOM
        (   21.8691)
   686. RIV BOUNDARY (686) RIVER STAGE (   21.8110) IS LESS THAN RIVER BOTTOM
        (   21.8630)
   687. RIV BOUNDARY (687) RIVER STAGE (   21.8049) IS LESS THAN RIVER BOTTOM
        (   21.8569)
   688. RIV BOUNDARY (688) RIVER STAGE (   21.7987) IS LESS THAN RIVER BOTTOM
        (   21.8507)
   689. RIV BOUNDARY (689) RIVER STAGE (   21.7926) IS LESS THAN RIVER BOTTOM
        (   21.8446)
   690. RIV BOUNDARY (690) RIVER STAGE (   21.7864) IS LESS THAN RIVER BOTTOM
        (   21.8384)
   691. RIV BOUNDARY (691) RIVER STAGE (   21.7803) IS LESS THAN RIVER BOTTOM
        (   21.8323)
   692. RIV BOUNDARY (692) RIVER STAGE (   21.7741) IS LESS THAN RIVER BOTTOM
        (   21.8261)
   693. RIV BOUNDARY (693) RIVER STAGE (   21.7680) IS LESS THAN RIVER BOTTOM
        (   21.8200)
   694. RIV BOUNDARY (694) RIVER STAGE (   21.7619) IS LESS THAN RIVER BOTTOM
        (   21.8139)
   695. RIV BOUNDARY (695) RIVER STAGE (   21.7557) IS LESS THAN RIVER BOTTOM
        (   21.8077)
   696. RIV BOUNDARY (696) RIVER STAGE (   21.7496) IS LESS THAN RIVER BOTTOM
        (   21.8016)
   697. RIV BOUNDARY (697) RIVER STAGE (   21.7434) IS LESS THAN RIVER BOTTOM
        (   21.7954)
   698. RIV BOUNDARY (698) RIVER STAGE (   21.7373) IS LESS THAN RIVER BOTTOM
        (   21.7893)
   699. RIV BOUNDARY (699) RIVER STAGE (   21.7311) IS LESS THAN RIVER BOTTOM
        (   21.7831)
   700. RIV BOUNDARY (700) RIVER STAGE (   21.7250) IS LESS THAN RIVER BOTTOM
        (   21.7770)
   701. RIV BOUNDARY (701) RIVER STAGE (   21.7189) IS LESS THAN RIVER BOTTOM
        (   21.7709)
   702. RIV BOUNDARY (702) RIVER STAGE (   21.7127) IS LESS THAN RIVER BOTTOM
        (   21.7647)
   703. RIV BOUNDARY (703) RIVER STAGE (   21.7066) IS LESS THAN RIVER BOTTOM
        (   21.7586)
   704. RIV BOUNDARY (704) RIVER STAGE (   21.7004) IS LESS THAN RIVER BOTTOM
        (   21.7524)
   705. RIV BOUNDARY (705) RIVER STAGE (   21.6943) IS LESS THAN RIVER BOTTOM
        (   21.7463)
   706. RIV BOUNDARY (706) RIVER STAGE (   21.6881) IS LESS THAN RIVER BOTTOM
        (   21.7401)
   707. RIV BOUNDARY (707) RIVER STAGE (   21.6820) IS LESS THAN RIVER BOTTOM
        (   21.7340)
   708. RIV BOUNDARY (708) RIVER STAGE (   21.6759) IS LESS THAN RIVER BOTTOM
        (   21.7279)
   709. RIV BOUNDARY (709) RIVER STAGE (   21.6697) IS LESS THAN RIVER BOTTOM
        (   21.7217)
   710. RIV BOUNDARY (710) RIVER STAGE (   21.6636) IS LESS THAN RIVER BOTTOM
        (   21.7156)
   711. RIV BOUNDARY (711) RIVER STAGE (   21.6574) IS LESS THAN RIVER BOTTOM
        (   21.7094)
[...]
        (   21.1541)
   802. RIV BOUNDARY (802) RIVER STAGE (   21.0934) IS LESS THAN RIVER BOTTOM
        (   21.1454)
   803. RIV BOUNDARY (803) RIVER STAGE (   21.0873) IS LESS THAN RIVER BOTTOM
        (   21.1393)
   804. RIV BOUNDARY (804) RIVER STAGE (   21.0811) IS LESS THAN RIVER BOTTOM
        (   21.1331)
   805. RIV BOUNDARY (805) RIVER STAGE (   21.0750) IS LESS THAN RIVER BOTTOM
        (   21.1270)
   806. RIV BOUNDARY (806) RIVER STAGE (   21.0688) IS LESS THAN RIVER BOTTOM
        (   21.1208)
   807. RIV BOUNDARY (807) RIVER STAGE (   21.0627) IS LESS THAN RIVER BOTTOM
        (   21.1147)
   808. RIV BOUNDARY (808) RIVER STAGE (   21.0565) IS LESS THAN RIVER BOTTOM
        (   21.1085)
   809. RIV BOUNDARY (809) RIVER STAGE (   21.0504) IS LESS THAN RIVER BOTTOM
        (   21.1024)
   810. RIV BOUNDARY (810) RIVER STAGE (   21.0443) IS LESS THAN RIVER BOTTOM
        (   21.0963)
   811. RIV BOUNDARY (811) RIVER STAGE (   21.0381) IS LESS THAN RIVER BOTTOM
        (   21.0901)
   812. RIV BOUNDARY (812) RIVER STAGE (   21.0320) IS LESS THAN RIVER BOTTOM
        (   21.0840)
   813. RIV BOUNDARY (813) RIVER STAGE (   21.0258) IS LESS THAN RIVER BOTTOM
        (   21.0778)
   814. RIV BOUNDARY (814) RIVER STAGE (   21.0197) IS LESS THAN RIVER BOTTOM
        (   21.0717)
   815. RIV BOUNDARY (815) RIVER STAGE (   21.0136) IS LESS THAN RIVER BOTTOM
        (   21.0656)
   816. RIV BOUNDARY (816) RIVER STAGE (   21.0074) IS LESS THAN RIVER BOTTOM
        (   21.0594)
   817. RIV BOUNDARY (817) RIVER STAGE (   20.9987) IS LESS THAN RIVER BOTTOM
        (   21.0507)
   818. RIV BOUNDARY (818) RIVER STAGE (   20.9926) IS LESS THAN RIVER BOTTOM
        (   21.0446)
   819. RIV BOUNDARY (819) RIVER STAGE (   20.9839) IS LESS THAN RIVER BOTTOM
        (   21.0359)
   820. RIV BOUNDARY (820) RIVER STAGE (   20.9778) IS LESS THAN RIVER BOTTOM
        (   21.0298)
   821. RIV BOUNDARY (821) RIVER STAGE (   20.9716) IS LESS THAN RIVER BOTTOM
        (   21.0236)
   822. RIV BOUNDARY (822) RIVER STAGE (   20.9655) IS LESS THAN RIVER BOTTOM
        (   21.0175)
   823. RIV BOUNDARY (823) RIVER STAGE (   20.9593) IS LESS THAN RIVER BOTTOM
        (   21.0113)
   824. RIV BOUNDARY (824) RIVER STAGE (   20.9532) IS LESS THAN RIVER BOTTOM
        (   21.0052)
   825. RIV BOUNDARY (825) RIVER STAGE (   20.9470) IS LESS THAN RIVER BOTTOM
        (   20.9990)
   826. RIV BOUNDARY (826) RIVER STAGE (   20.9409) IS LESS THAN RIVER BOTTOM
        (   20.9929)
   827. RIV BOUNDARY (827) RIVER STAGE (   20.9348) IS LESS THAN RIVER BOTTOM
        (   20.9868)
   828. RIV BOUNDARY (828) RIVER STAGE (   20.9286) IS LESS THAN RIVER BOTTOM
        (   20.9806)
   829. RIV BOUNDARY (829) RIVER STAGE (   20.9225) IS LESS THAN RIVER BOTTOM
        (   20.9745)
   830. RIV BOUNDARY (830) RIVER STAGE (   20.9163) IS LESS THAN RIVER BOTTOM
        (   20.9683)
   831. RIV BOUNDARY (831) RIVER STAGE (   20.9102) IS LESS THAN RIVER BOTTOM
        (   20.9622)
   832. RIV BOUNDARY (832) RIVER STAGE (   20.9040) IS LESS THAN RIVER BOTTOM
        (   20.9560)
   833. RIV BOUNDARY (833) RIVER STAGE (   20.8979) IS LESS THAN RIVER BOTTOM
        (   20.9499)
   834. RIV BOUNDARY (834) RIVER STAGE (   20.8918) IS LESS THAN RIVER BOTTOM
        (   20.9438)
   835. RIV BOUNDARY (835) RIVER STAGE (   20.8856) IS LESS THAN RIVER BOTTOM
        (   20.9376)
   836. RIV BOUNDARY (836) RIVER STAGE (   20.8795) IS LESS THAN RIVER BOTTOM
        (   20.9315)
   837. RIV BOUNDARY (837) RIVER STAGE (   20.8733) IS LESS THAN RIVER BOTTOM
        (   20.9253)
   838. RIV BOUNDARY (838) RIVER STAGE (   20.8672) IS LESS THAN RIVER BOTTOM
        (   20.9192)
   839. RIV BOUNDARY (839) RIVER STAGE (   20.8611) IS LESS THAN RIVER BOTTOM
        (   20.9131)
   840. RIV BOUNDARY (840) RIVER STAGE (   20.8524) IS LESS THAN RIVER BOTTOM
        (   20.9044)
   841. RIV BOUNDARY (841) RIVER STAGE (   20.8462) IS LESS THAN RIVER BOTTOM
        (   20.8982)
   842. RIV BOUNDARY (842) RIVER STAGE (   20.8375) IS LESS THAN RIVER BOTTOM
        (   20.8895)
   843. RIV BOUNDARY (843) RIVER STAGE (   20.8314) IS LESS THAN RIVER BOTTOM
        (   20.8834)
   844. RIV BOUNDARY (844) RIVER STAGE (   20.8253) IS LESS THAN RIVER BOTTOM
        (   20.8773)
   845. RIV BOUNDARY (845) RIVER STAGE (   20.8191) IS LESS THAN RIVER BOTTOM
        (   20.8711)
   846. RIV BOUNDARY (846) RIVER STAGE (   20.8130) IS LESS THAN RIVER BOTTOM
        (   20.8650)
   847. RIV BOUNDARY (847) RIVER STAGE (   20.8068) IS LESS THAN RIVER BOTTOM
        (   20.8588)
   848. RIV BOUNDARY (848) RIVER STAGE (   20.8007) IS LESS THAN RIVER BOTTOM
        (   20.8527)
   849. RIV BOUNDARY (849) RIVER STAGE (   20.7920) IS LESS THAN RIVER BOTTOM
        (   20.8440)
   850. RIV BOUNDARY (850) RIVER STAGE (   20.7859) IS LESS THAN RIVER BOTTOM
        (   20.8379)
   851. RIV BOUNDARY (851) RIVER STAGE (   20.7772) IS LESS THAN RIVER BOTTOM
        (   20.8292)
   852. RIV BOUNDARY (852) RIVER STAGE (   20.7710) IS LESS THAN RIVER BOTTOM
        (   20.8230)
   853. RIV BOUNDARY (853) RIVER STAGE (   20.7649) IS LESS THAN RIVER BOTTOM
        (   20.8169)
   854. RIV BOUNDARY (854) RIVER STAGE (   20.7562) IS LESS THAN RIVER BOTTOM
        (   20.8082)
   855. RIV BOUNDARY (855) RIVER STAGE (   20.7501) IS LESS THAN RIVER BOTTOM
        (   20.8021)
   856. RIV BOUNDARY (856) RIVER STAGE (   20.7414) IS LESS THAN RIVER BOTTOM
        (   20.7934)
   857. RIV BOUNDARY (857) RIVER STAGE (   20.7352) IS LESS THAN RIVER BOTTOM
        (   20.7872)
   858. RIV BOUNDARY (858) RIVER STAGE (   20.7265) IS LESS THAN RIVER BOTTOM
        (   20.7785)
   859. RIV BOUNDARY (859) RIVER STAGE (   20.7204) IS LESS THAN RIVER BOTTOM
        (   20.7724)
   860. RIV BOUNDARY (860) RIVER STAGE (   20.7117) IS LESS THAN RIVER BOTTOM
        (   20.7637)
   861. RIV BOUNDARY (861) RIVER STAGE (   20.7030) IS LESS THAN RIVER BOTTOM
        (   20.7550)
   862. RIV BOUNDARY (862) RIVER STAGE (   20.6969) IS LESS THAN RIVER BOTTOM
        (   20.7489)
   863. RIV BOUNDARY (863) RIVER STAGE (   20.6882) IS LESS THAN RIVER BOTTOM
        (   20.7402)
   864. RIV BOUNDARY (864) RIVER STAGE (   20.6821) IS LESS THAN RIVER BOTTOM
        (   20.7341)
   865. RIV BOUNDARY (865) RIVER STAGE (   20.6734) IS LESS THAN RIVER BOTTOM
        (   20.7254)
   866. RIV BOUNDARY (866) RIVER STAGE (   20.6672) IS LESS THAN RIVER BOTTOM
        (   20.7192)
   867. RIV BOUNDARY (867) RIVER STAGE (   20.6585) IS LESS THAN RIVER BOTTOM
        (   20.7105)
   868. RIV BOUNDARY (868) RIVER STAGE (   20.6524) IS LESS THAN RIVER BOTTOM
        (   20.7044)
   869. RIV BOUNDARY (869) RIVER STAGE (   20.6463) IS LESS THAN RIVER BOTTOM
        (   20.6983)
   870. RIV BOUNDARY (870) RIVER STAGE (   20.6401) IS LESS THAN RIVER BOTTOM
        (   20.6921)
   871. RIV BOUNDARY (871) RIVER STAGE (   20.6340) IS LESS THAN RIVER BOTTOM
        (   20.6860)
   872. RIV BOUNDARY (872) RIVER STAGE (   20.6278) IS LESS THAN RIVER BOTTOM
        (   20.6798)
   873. RIV BOUNDARY (873) RIVER STAGE (   20.6217) IS LESS THAN RIVER BOTTOM
        (   20.6737)
   874. RIV BOUNDARY (874) RIVER STAGE (   20.6155) IS LESS THAN RIVER BOTTOM
        (   20.6675)
   875. RIV BOUNDARY (875) RIVER STAGE (   20.6094) IS LESS THAN RIVER BOTTOM
        (   20.6614)
   876. RIV BOUNDARY (876) RIVER STAGE (   20.6033) IS LESS THAN RIVER BOTTOM
        (   20.6553)
   877. RIV BOUNDARY (877) RIVER STAGE (   20.5971) IS LESS THAN RIVER BOTTOM
        (   20.6491)
   878. RIV BOUNDARY (878) RIVER STAGE (   20.5910) IS LESS THAN RIVER BOTTOM
        (   20.6430)
   879. RIV BOUNDARY (879) RIVER STAGE (   20.5848) IS LESS THAN RIVER BOTTOM
        (   20.6368)
   880. RIV BOUNDARY (880) RIVER STAGE (   20.5787) IS LESS THAN RIVER BOTTOM
        (   20.6307)
   881. RIV BOUNDARY (881) RIVER STAGE (   20.5725) IS LESS THAN RIVER BOTTOM
        (   20.6245)
   882. RIV BOUNDARY (882) RIVER STAGE (   20.5639) IS LESS THAN RIVER BOTTOM
        (   20.6159)
   883. RIV BOUNDARY (883) RIVER STAGE (   20.5577) IS LESS THAN RIVER BOTTOM
        (   20.6097)
   884. RIV BOUNDARY (884) RIVER STAGE (   20.5490) IS LESS THAN RIVER BOTTOM
        (   20.6010)
   885. RIV BOUNDARY (885) RIVER STAGE (   20.5429) IS LESS THAN RIVER BOTTOM
        (   20.5949)
   886. RIV BOUNDARY (886) RIVER STAGE (   20.5367) IS LESS THAN RIVER BOTTOM
        (   20.5887)
   887. RIV BOUNDARY (887) RIVER STAGE (   20.5306) IS LESS THAN RIVER BOTTOM
        (   20.5826)
   888. RIV BOUNDARY (888) RIVER STAGE (   20.5245) IS LESS THAN RIVER BOTTOM
        (   20.5765)
   889. RIV BOUNDARY (889) RIVER STAGE (   20.5183) IS LESS THAN RIVER BOTTOM
        (   20.5703)
   890. RIV BOUNDARY (890) RIVER STAGE (   20.5122) IS LESS THAN RIVER BOTTOM
        (   20.5642)
   891. RIV BOUNDARY (891) RIVER STAGE (   20.5060) IS LESS THAN RIVER BOTTOM
        (   20.5580)
   892. RIV BOUNDARY (892) RIVER STAGE (   20.4973) IS LESS THAN RIVER BOTTOM
        (   20.5493)
   893. RIV BOUNDARY (893) RIVER STAGE (   20.4912) IS LESS THAN RIVER BOTTOM
        (   20.5432)
   894. RIV BOUNDARY (894) RIVER STAGE (   20.4825) IS LESS THAN RIVER BOTTOM
        (   20.5345)
   895. RIV BOUNDARY (895) RIVER STAGE (   20.4764) IS LESS THAN RIVER BOTTOM
        (   20.5284)
   896. RIV BOUNDARY (896) RIVER STAGE (   20.4702) IS LESS THAN RIVER BOTTOM
        (   20.5222)
   897. RIV BOUNDARY (897) RIVER STAGE (   20.4641) IS LESS THAN RIVER BOTTOM
        (   20.5161)
   898. RIV BOUNDARY (898) RIVER STAGE (   20.4579) IS LESS THAN RIVER BOTTOM
        (   20.5099)
   899. RIV BOUNDARY (899) RIVER STAGE (   20.4518) IS LESS THAN RIVER BOTTOM
        (   20.5038)
   900. RIV BOUNDARY (900) RIVER STAGE (   20.4457) IS LESS THAN RIVER BOTTOM
        (   20.4977)
   901. RIV BOUNDARY (901) RIVER STAGE (   20.4395) IS LESS THAN RIVER BOTTOM
        (   20.4915)
   902. RIV BOUNDARY (902) RIVER STAGE (   20.4334) IS LESS THAN RIVER BOTTOM
        (   20.4854)
   903. RIV BOUNDARY (903) RIVER STAGE (   20.4272) IS LESS THAN RIVER BOTTOM
        (   20.4792)
   904. RIV BOUNDARY (904) RIVER STAGE (   20.4211) IS LESS THAN RIVER BOTTOM
        (   20.4731)
   905. RIV BOUNDARY (905) RIVER STAGE (   20.4150) IS LESS THAN RIVER BOTTOM
        (   20.4670)
   906. RIV BOUNDARY (906) RIVER STAGE (   20.4088) IS LESS THAN RIVER BOTTOM
        (   20.4608)
   907. RIV BOUNDARY (907) RIVER STAGE (   20.4027) IS LESS THAN RIVER BOTTOM
        (   20.4547)
   908. RIV BOUNDARY (908) RIVER STAGE (   20.3965) IS LESS THAN RIVER BOTTOM
        (   20.4485)
   909. RIV BOUNDARY (909) RIVER STAGE (   20.3904) IS LESS THAN RIVER BOTTOM
        (   20.4424)
   910. RIV BOUNDARY (910) RIVER STAGE (   20.3842) IS LESS THAN RIVER BOTTOM
        (   20.4362)
   911. RIV BOUNDARY (911) RIVER STAGE (   20.3781) IS LESS THAN RIVER BOTTOM
        (   20.4301)
   912. RIV BOUNDARY (912) RIVER STAGE (   20.3720) IS LESS THAN RIVER BOTTOM
        (   20.4240)
   913. RIV BOUNDARY (913) RIVER STAGE (   20.3658) IS LESS THAN RIVER BOTTOM
        (   20.4178)
   914. RIV BOUNDARY (914) RIVER STAGE (   20.3597) IS LESS THAN RIVER BOTTOM
        (   20.4117)
   915. RIV BOUNDARY (915) RIVER STAGE (   20.3535) IS LESS THAN RIVER BOTTOM
        (   20.4055)
   916. RIV BOUNDARY (916) RIVER STAGE (   20.3474) IS LESS THAN RIVER BOTTOM
        (   20.3994)
   917. RIV BOUNDARY (917) RIVER STAGE (   20.3387) IS LESS THAN RIVER BOTTOM
        (   20.3907)
   918. RIV BOUNDARY (918) RIVER STAGE (   20.3326) IS LESS THAN RIVER BOTTOM
        (   20.3846)
   919. RIV BOUNDARY (919) RIVER STAGE (   20.3239) IS LESS THAN RIVER BOTTOM
        (   20.3759)
   920. RIV BOUNDARY (920) RIVER STAGE (   20.3177) IS LESS THAN RIVER BOTTOM
        (   20.3697)
   921. RIV BOUNDARY (921) RIVER STAGE (   20.3116) IS LESS THAN RIVER BOTTOM
        (   20.3636)
   922. RIV BOUNDARY (922) RIVER STAGE (   20.3054) IS LESS THAN RIVER BOTTOM
        (   20.3574)
   923. RIV BOUNDARY (923) RIVER STAGE (   20.2993) IS LESS THAN RIVER BOTTOM
        (   20.3513)
   924. RIV BOUNDARY (924) RIVER STAGE (   20.2932) IS LESS THAN RIVER BOTTOM
        (   20.3452)
   925. RIV BOUNDARY (925) RIVER STAGE (   20.2845) IS LESS THAN RIVER BOTTOM
        (   20.3365)
   926. RIV BOUNDARY (926) RIVER STAGE (   20.2783) IS LESS THAN RIVER BOTTOM
        (   20.3303)
   927. RIV BOUNDARY (927) RIVER STAGE (   20.2696) IS LESS THAN RIVER BOTTOM
        (   20.3216)
   928. RIV BOUNDARY (928) RIVER STAGE (   20.2610) IS LESS THAN RIVER BOTTOM
        (   20.3130)
   929. RIV BOUNDARY (929) RIVER STAGE (   20.2548) IS LESS THAN RIVER BOTTOM
        (   20.3068)
   930. RIV BOUNDARY (930) RIVER STAGE (   20.2461) IS LESS THAN RIVER BOTTOM
        (   20.2981)
   931. RIV BOUNDARY (931) RIVER STAGE (   20.2400) IS LESS THAN RIVER BOTTOM
        (   20.2920)
   932. RIV BOUNDARY (932) RIVER STAGE (   20.2338) IS LESS THAN RIVER BOTTOM
        (   20.2858)
   933. RIV BOUNDARY (933) RIVER STAGE (   20.2277) IS LESS THAN RIVER BOTTOM
        (   20.2797)
   934. RIV BOUNDARY (934) RIVER STAGE (   20.2216) IS LESS THAN RIVER BOTTOM
        (   20.2736)
   935. RIV BOUNDARY (935) RIVER STAGE (   20.2129) IS LESS THAN RIVER BOTTOM
        (   20.2649)
   936. RIV BOUNDARY (936) RIVER STAGE (   20.2067) IS LESS THAN RIVER BOTTOM
        (   20.2587)
   937. RIV BOUNDARY (937) RIVER STAGE (   20.1980) IS LESS THAN RIVER BOTTOM
        (   20.2500)
   938. RIV BOUNDARY (938) RIVER STAGE (   20.1894) IS LESS THAN RIVER BOTTOM
        (   20.2414)
   939. RIV BOUNDARY (939) RIVER STAGE (   20.1832) IS LESS THAN RIVER BOTTOM
        (   20.2352)
   940. RIV BOUNDARY (940) RIVER STAGE (   20.1745) IS LESS THAN RIVER BOTTOM
        (   20.2265)
   941. RIV BOUNDARY (941) RIVER STAGE (   20.1684) IS LESS THAN RIVER BOTTOM
        (   20.2204)
   942. RIV BOUNDARY (942) RIVER STAGE (   20.1622) IS LESS THAN RIVER BOTTOM
        (   20.2142)
   943. RIV BOUNDARY (943) RIVER STAGE (   20.1536) IS LESS THAN RIVER BOTTOM
        (   20.2056)
   944. RIV BOUNDARY (944) RIVER STAGE (   20.1474) IS LESS THAN RIVER BOTTOM
        (   20.1994)
   945. RIV BOUNDARY (945) RIVER STAGE (   20.1337) IS LESS THAN RIVER BOTTOM
        (   20.1857)
   946. RIV BOUNDARY (946) RIVER STAGE (   20.1275) IS LESS THAN RIVER BOTTOM
        (   20.1795)
   947. RIV BOUNDARY (947) RIVER STAGE (   20.1138) IS LESS THAN RIVER BOTTOM
        (   20.1658)
   948. RIV BOUNDARY (948) RIVER STAGE (   20.1077) IS LESS THAN RIVER BOTTOM
        (   20.1597)
   949. RIV BOUNDARY (949) RIVER STAGE (   20.0990) IS LESS THAN RIVER BOTTOM
        (   20.1510)
   950. RIV BOUNDARY (950) RIVER STAGE (   20.0903) IS LESS THAN RIVER BOTTOM
        (   20.1423)
   951. RIV BOUNDARY (951) RIVER STAGE (   20.0841) IS LESS THAN RIVER BOTTOM
        (   20.1361)
   952. RIV BOUNDARY (952) RIVER STAGE (   20.0704) IS LESS THAN RIVER BOTTOM
        (   20.1224)
   953. RIV BOUNDARY (953) RIVER STAGE (   20.0643) IS LESS THAN RIVER BOTTOM
        (   20.1163)
   954. RIV BOUNDARY (954) RIVER STAGE (   20.0505) IS LESS THAN RIVER BOTTOM
        (   20.1025)
   955. RIV BOUNDARY (955) RIVER STAGE (   20.0444) IS LESS THAN RIVER BOTTOM
        (   20.0964)
   956. RIV BOUNDARY (956) RIVER STAGE (   20.0357) IS LESS THAN RIVER BOTTOM
        (   20.0877)
   957. RIV BOUNDARY (957) RIVER STAGE (   20.0296) IS LESS THAN RIVER BOTTOM
        (   20.0816)
   958. RIV BOUNDARY (958) RIVER STAGE (   20.0234) IS LESS THAN RIVER BOTTOM
        (   20.0754)
   959. RIV BOUNDARY (959) RIVER STAGE (   20.0173) IS LESS THAN RIVER BOTTOM
        (   20.0693)
   960. RIV BOUNDARY (960) RIVER STAGE (   20.0111) IS LESS THAN RIVER BOTTOM
        (   20.0631)
   961. RIV BOUNDARY (961) RIVER STAGE (   20.0050) IS LESS THAN RIVER BOTTOM
        (   20.0570)
   962. RIV BOUNDARY (962) RIVER STAGE (   19.9989) IS LESS THAN RIVER BOTTOM
        (   20.0509)
   963. RIV BOUNDARY (963) RIVER STAGE (   19.9927) IS LESS THAN RIVER BOTTOM
        (   20.0447)
   964. RIV BOUNDARY (964) RIVER STAGE (   19.9840) IS LESS THAN RIVER BOTTOM
        (   20.0360)
   965. RIV BOUNDARY (965) RIVER STAGE (   19.9779) IS LESS THAN RIVER BOTTOM
        (   20.0299)
   966. RIV BOUNDARY (966) RIVER STAGE (   19.9692) IS LESS THAN RIVER BOTTOM
        (   20.0212)
   967. RIV BOUNDARY (967) RIVER STAGE (   19.9631) IS LESS THAN RIVER BOTTOM
        (   20.0151)
   968. RIV BOUNDARY (968) RIVER STAGE (   19.9569) IS LESS THAN RIVER BOTTOM
        (   20.0089)
   969. RIV BOUNDARY (969) RIVER STAGE (   19.9508) IS LESS THAN RIVER BOTTOM
        (   20.0028)
   970. RIV BOUNDARY (970) RIVER STAGE (   19.9446) IS LESS THAN RIVER BOTTOM
        (   19.9966)
   971. RIV BOUNDARY (971) RIVER STAGE (   19.9385) IS LESS THAN RIVER BOTTOM
        (   19.9905)
   972. RIV BOUNDARY (972) RIVER STAGE (   19.9323) IS LESS THAN RIVER BOTTOM
        (   19.9843)
   973. RIV BOUNDARY (973) RIVER STAGE (   19.9237) IS LESS THAN RIVER BOTTOM
        (   19.9757)
   974. RIV BOUNDARY (974) RIVER STAGE (   19.9175) IS LESS THAN RIVER BOTTOM
        (   19.9695)
   975. RIV BOUNDARY (975) RIVER STAGE (   19.9038) IS LESS THAN RIVER BOTTOM
        (   19.9558)
   976. RIV BOUNDARY (976) RIVER STAGE (   19.8976) IS LESS THAN RIVER BOTTOM
        (   19.9496)
   977. RIV BOUNDARY (977) RIVER STAGE (   19.8890) IS LESS THAN RIVER BOTTOM
        (   19.9410)
   978. RIV BOUNDARY (978) RIVER STAGE (   19.8828) IS LESS THAN RIVER BOTTOM
        (   19.9348)
   979. RIV BOUNDARY (979) RIVER STAGE (   19.8767) IS LESS THAN RIVER BOTTOM
        (   19.9287)
   980. RIV BOUNDARY (980) RIVER STAGE (   19.8705) IS LESS THAN RIVER BOTTOM
        (   19.9225)
   981. RIV BOUNDARY (981) RIVER STAGE (   19.8644) IS LESS THAN RIVER BOTTOM
        (   19.9164)
   982. RIV BOUNDARY (982) RIVER STAGE (   19.8582) IS LESS THAN RIVER BOTTOM
        (   19.9102)
   983. RIV BOUNDARY (983) RIVER STAGE (   19.8521) IS LESS THAN RIVER BOTTOM
        (   19.9041)
   984. RIV BOUNDARY (984) RIVER STAGE (   19.8460) IS LESS THAN RIVER BOTTOM
        (   19.8980)
   985. RIV BOUNDARY (985) RIVER STAGE (   19.8398) IS LESS THAN RIVER BOTTOM
        (   19.8918)
   986. RIV BOUNDARY (986) RIVER STAGE (   19.8311) IS LESS THAN RIVER BOTTOM
        (   19.8831)
   987. RIV BOUNDARY (987) RIVER STAGE (   19.8250) IS LESS THAN RIVER BOTTOM
        (   19.8770)
   988. RIV BOUNDARY (988) RIVER STAGE (   19.8113) IS LESS THAN RIVER BOTTOM
        (   19.8633)
   989. RIV BOUNDARY (989) RIVER STAGE (   19.8051) IS LESS THAN RIVER BOTTOM
        (   19.8571)
   990. RIV BOUNDARY (990) RIVER STAGE (   19.7964) IS LESS THAN RIVER BOTTOM
        (   19.8484)
   991. RIV BOUNDARY (991) RIVER STAGE (   19.7877) IS LESS THAN RIVER BOTTOM
        (   19.8397)
   992. RIV BOUNDARY (992) RIVER STAGE (   19.7816) IS LESS THAN RIVER BOTTOM
        (   19.8336)
   993. RIV BOUNDARY (993) RIVER STAGE (   19.7679) IS LESS THAN RIVER BOTTOM
        (   19.8199)
   994. RIV BOUNDARY (994) RIVER STAGE (   19.7617) IS LESS THAN RIVER BOTTOM
        (   19.8137)
   995. RIV BOUNDARY (995) RIVER STAGE (   19.7530) IS LESS THAN RIVER BOTTOM
        (   19.8050)
   996. RIV BOUNDARY (996) RIVER STAGE (   19.7469) IS LESS THAN RIVER BOTTOM
        (   19.7989)
   997. RIV BOUNDARY (997) RIVER STAGE (   19.7407) IS LESS THAN RIVER BOTTOM
        (   19.7927)
   998. RIV BOUNDARY (998) RIVER STAGE (   19.7346) IS LESS THAN RIVER BOTTOM
        (   19.7866)
   999. RIV BOUNDARY (999) RIVER STAGE (   19.7285) IS LESS THAN RIVER BOTTOM
        (   19.7805)
  1000. RIV BOUNDARY (1000) RIVER STAGE (   19.7223) IS LESS THAN RIVER
        BOTTOM (   19.7743)

 1524 additional error(s) detected but not printed.

UNIT ERROR REPORT:

  1. Error occurred while reading file
     'C:\Users\Anwender\Python\PilotPointEstimation\Virtual_Reality\transient_
     model\Reference.riv'
